  
       XFOIL         Version 6.99
  
 Calculated polar for: Profile47_0                                     
  
 1 1 Reynolds number fixed          Mach number fixed         
  
 xtrf =   1.000 (top)        1.000 (bottom)  
 Mach =   0.000     Re =     0.750 e 6     Ncrit =   9.000
  
   alpha    CL        CD       CDp       CM     Top_Xtr  Bot_Xtr
  ------ -------- --------- --------- -------- -------- --------
  -9.000  -0.6612   0.01655   0.00990  -0.0639   0.7343   0.0158
  -8.500  -0.6030   0.01532   0.00858  -0.0672   0.7188   0.0183
  -8.000  -0.5451   0.01434   0.00756  -0.0696   0.7041   0.0223
  -7.500  -0.4866   0.01342   0.00665  -0.0719   0.6894   0.0328
  -7.000  -0.4274   0.01253   0.00580  -0.0741   0.6746   0.0515
  -6.500  -0.3672   0.01143   0.00490  -0.0768   0.6607   0.0955
  -6.000  -0.3056   0.01013   0.00392  -0.0799   0.6471   0.1850
  -5.500  -0.2423   0.00864   0.00296  -0.0835   0.6337   0.3258
  -5.000  -0.1804   0.00813   0.00266  -0.0853   0.6203   0.3987
  -4.500  -0.1192   0.00803   0.00258  -0.0865   0.6073   0.4353
  -4.000  -0.0585   0.00813   0.00272  -0.0874   0.5945   0.4684
  -3.500   0.0019   0.00841   0.00291  -0.0881   0.5821   0.4859
  -3.000   0.0625   0.00839   0.00284  -0.0890   0.5702   0.4952
  -2.500   0.1231   0.00845   0.00282  -0.0899   0.5594   0.5015
  -2.000   0.1835   0.00853   0.00280  -0.0908   0.5473   0.5071
  -1.500   0.2442   0.00861   0.00281  -0.0917   0.5380   0.5122
  -1.000   0.3049   0.00867   0.00281  -0.0927   0.5275   0.5152
  -0.500   0.3649   0.00878   0.00280  -0.0936   0.5136   0.5182
  -0.000   0.4253   0.00871   0.00276  -0.0946   0.5057   0.5266
   0.500   0.4858   0.00876   0.00282  -0.0955   0.4974   0.5329
   1.000   0.5455   0.00889   0.00289  -0.0963   0.4859   0.5381
   1.500   0.6044   0.00914   0.00304  -0.0971   0.4704   0.5428
   2.000   0.6648   0.00922   0.00314  -0.0980   0.4655   0.5467
   2.500   0.7243   0.00927   0.00322  -0.0988   0.4571   0.5517
   3.000   0.7823   0.00949   0.00337  -0.0994   0.4408   0.5566
   3.500   0.8409   0.00971   0.00358  -0.1001   0.4307   0.5616
   4.000   0.9002   0.00985   0.00376  -0.1010   0.4272   0.5662
   4.500   0.9585   0.00997   0.00392  -0.1016   0.4159   0.5710
   5.000   1.0143   0.01037   0.00418  -0.1019   0.3941   0.5765
   5.500   1.0728   0.01046   0.00438  -0.1026   0.3862   0.5812
   6.000   1.1265   0.01098   0.00474  -0.1027   0.3558   0.5862
   6.500   1.1837   0.01118   0.00501  -0.1033   0.3394   0.5914
   7.000   1.2243   0.01283   0.00608  -0.1018   0.2437   0.5971
   8.000   1.2949   0.01644   0.00897  -0.0977   0.1122   0.6087
   8.500   1.3269   0.01804   0.01039  -0.0952   0.0785   0.6145
   9.000   1.3575   0.01930   0.01169  -0.0924   0.0647   0.6207
   9.500   1.3498   0.02357   0.01566  -0.0874   0.0194   0.6265
  10.000   1.3686   0.02653   0.01868  -0.0857   0.0126   0.6330
  10.500   1.3894   0.02956   0.02180  -0.0846   0.0104   0.6401
  11.000   1.4085   0.03287   0.02521  -0.0836   0.0089   0.6483
  11.500   1.4264   0.03638   0.02884  -0.0828   0.0085   0.6563
  12.000   1.4412   0.04027   0.03287  -0.0821   0.0082   0.6645
  12.500   1.4519   0.04463   0.03740  -0.0814   0.0076   0.6734
  13.000   1.4550   0.04991   0.04284  -0.0808   0.0058   0.6830
  13.500   1.4592   0.05531   0.04840  -0.0805   0.0050   0.6944
  14.000   1.4558   0.06172   0.05496  -0.0804   0.0019   0.7084
  14.500   1.4540   0.06820   0.06160  -0.0806   0.0016   0.7256
  15.000   1.4595   0.07375   0.06730  -0.0808   0.0014   0.7436
  15.500   1.4592   0.08034   0.07408  -0.0816   0.0013   0.7623
  16.000   1.4654   0.08597   0.07989  -0.0822   0.0012   0.7858
  16.500   1.4635   0.09292   0.08709  -0.0835   0.0012   0.8168
  17.000   1.4653   0.09825   0.09284  -0.0835   0.0012   1.0000
  17.500   1.4629   0.10551   0.10023  -0.0856   0.0012   1.0000
  18.000   1.4672   0.11171   0.10653  -0.0875   0.0011   1.0000
  18.500   1.4703   0.11809   0.11303  -0.0899   0.0011   1.0000
  19.000   1.4691   0.12522   0.12029  -0.0929   0.0011   1.0000
  19.500   1.4778   0.13063   0.12579  -0.0953   0.0011   1.0000
  20.000   1.4821   0.13679   0.13207  -0.0983   0.0011   1.0000
  20.500   1.4793   0.14420   0.13962  -0.1025   0.0011   1.0000
  21.000   1.4835   0.15044   0.14598  -0.1063   0.0011   1.0000
  21.500   1.4782   0.15840   0.15410  -0.1115   0.0011   1.0000
  22.000   1.4797   0.16503   0.16086  -0.1161   0.0011   1.0000
  22.500   1.4726   0.17349   0.16949  -0.1225   0.0011   1.0000
  23.000   1.4734   0.18031   0.17644  -0.1279   0.0011   1.0000
  23.500   1.4639   0.18932   0.18564  -0.1354   0.0011   1.0000
  24.000   1.4628   0.19659   0.19304  -0.1417   0.0011   1.0000
  24.500   1.4539   0.20594   0.20261  -0.1502   0.0011   1.0000
  25.000   1.4432   0.21534   0.21220  -0.1588   0.0011   1.0000
