  
       XFOIL         Version 6.99
  
 Calculated polar for: Profile43_0                                     
  
 1 1 Reynolds number fixed          Mach number fixed         
  
 xtrf =   1.000 (top)        1.000 (bottom)  
 Mach =   0.000     Re =     0.750 e 6     Ncrit =   9.000
  
   alpha    CL        CD       CDp       CM     Top_Xtr  Bot_Xtr
  ------ -------- --------- --------- -------- -------- --------
  -9.000  -0.7633   0.02570   0.01910  -0.0250   0.7062   0.0176
  -8.500  -0.7269   0.02271   0.01606  -0.0285   0.6887   0.0257
  -8.000  -0.6803   0.01837   0.01192  -0.0370   0.6719   0.0721
  -7.500  -0.6025   0.01147   0.00580  -0.0560   0.6535   0.2457
  -7.000  -0.5353   0.00957   0.00424  -0.0614   0.6372   0.3479
  -6.500  -0.4720   0.00905   0.00375  -0.0636   0.6216   0.3907
  -6.000  -0.4092   0.00885   0.00354  -0.0654   0.6067   0.4271
  -5.500  -0.3471   0.00883   0.00342  -0.0667   0.5920   0.4418
  -5.000  -0.2852   0.00881   0.00328  -0.0679   0.5776   0.4500
  -4.500  -0.2233   0.00885   0.00319  -0.0691   0.5640   0.4589
  -4.000  -0.1614   0.00898   0.00325  -0.0702   0.5517   0.4703
  -3.500  -0.0995   0.00906   0.00320  -0.0714   0.5402   0.4778
  -3.000  -0.0381   0.00910   0.00320  -0.0724   0.5295   0.4825
  -2.500   0.0238   0.00915   0.00312  -0.0736   0.5190   0.4876
  -2.000   0.0849   0.00918   0.00313  -0.0746   0.5086   0.4914
  -1.500   0.1464   0.00927   0.00312  -0.0757   0.4989   0.4961
  -1.000   0.2075   0.00933   0.00314  -0.0768   0.4900   0.5000
  -0.500   0.2686   0.00942   0.00319  -0.0778   0.4812   0.5041
  -0.000   0.3302   0.00949   0.00320  -0.0789   0.4727   0.5085
   0.500   0.3909   0.00956   0.00329  -0.0799   0.4649   0.5120
   1.000   0.4517   0.00969   0.00337  -0.0809   0.4572   0.5160
   1.500   0.5124   0.00980   0.00344  -0.0819   0.4497   0.5197
   2.000   0.5728   0.00991   0.00359  -0.0828   0.4426   0.5232
   2.500   0.6331   0.01008   0.00372  -0.0837   0.4358   0.5271
   3.000   0.6932   0.01020   0.00386  -0.0846   0.4287   0.5307
   3.500   0.7531   0.01035   0.00405  -0.0854   0.4217   0.5342
   4.000   0.8127   0.01058   0.00424  -0.0863   0.4153   0.5382
   4.500   0.8720   0.01073   0.00443  -0.0871   0.4080   0.5415
   5.000   0.9311   0.01093   0.00470  -0.0878   0.4009   0.5451
   5.500   0.9897   0.01119   0.00495  -0.0885   0.3945   0.5490
   6.000   1.0482   0.01135   0.00518  -0.0892   0.3861   0.5524
   6.500   1.1062   0.01156   0.00545  -0.0898   0.3762   0.5560
   7.500   1.2210   0.01206   0.00607  -0.0909   0.3580   0.5635
   8.000   1.2771   0.01239   0.00641  -0.0912   0.3450   0.5674
   8.500   1.3325   0.01275   0.00679  -0.0916   0.3287   0.5714
   9.000   1.3866   0.01317   0.00727  -0.0917   0.3151   0.5751
   9.500   1.4392   0.01372   0.00781  -0.0917   0.2972   0.5795
  10.000   1.4887   0.01443   0.00853  -0.0913   0.2765   0.5831
  10.500   1.5335   0.01544   0.00946  -0.0904   0.2466   0.5871
  11.000   1.5664   0.01714   0.01096  -0.0882   0.2068   0.5913
  11.500   1.5843   0.01920   0.01289  -0.0842   0.1717   0.5950
  12.000   1.5896   0.02246   0.01605  -0.0806   0.1405   0.5987
  12.500   1.5872   0.02728   0.02081  -0.0787   0.1131   0.6024
  13.000   1.5792   0.03320   0.02672  -0.0776   0.0918   0.6058
  13.500   1.5665   0.03984   0.03339  -0.0769   0.0767   0.6089
  14.000   1.5511   0.04694   0.04057  -0.0764   0.0650   0.6119
  14.500   1.5351   0.05433   0.04805  -0.0762   0.0567   0.6155
  15.000   1.5203   0.06202   0.05586  -0.0766   0.0500   0.6186
  15.500   1.5087   0.06959   0.06353  -0.0772   0.0443   0.6224
  16.000   1.4980   0.07723   0.07130  -0.0781   0.0395   0.6255
  16.500   1.4852   0.08533   0.07947  -0.0793   0.0345   0.6293
  17.000   1.4782   0.09280   0.08708  -0.0807   0.0307   0.6330
  18.000   1.4615   0.10847   0.10294  -0.0845   0.0232   0.6411
  18.500   1.4534   0.11643   0.11100  -0.0871   0.0203   0.6449
  19.000   1.4462   0.12440   0.11909  -0.0901   0.0182   0.6493
  19.500   1.4477   0.13113   0.12596  -0.0929   0.0175   0.6544
  20.000   1.4479   0.13805   0.13303  -0.0962   0.0167   0.6594
  20.500   1.4478   0.14508   0.14020  -0.0998   0.0161   0.6647
  21.000   1.4493   0.15186   0.14712  -0.1037   0.0156   0.6702
  21.500   1.4497   0.15885   0.15424  -0.1079   0.0151   0.6762
  22.000   1.4499   0.16590   0.16142  -0.1126   0.0146   0.6825
  22.500   1.4511   0.17278   0.16843  -0.1173   0.0143   0.6893
  23.000   1.4530   0.17955   0.17535  -0.1223   0.0141   0.6965
  23.500   1.4568   0.18596   0.18191  -0.1273   0.0140   0.7045
  24.000   1.4593   0.19256   0.18866  -0.1326   0.0136   0.7139
  24.500   1.4635   0.19884   0.19509  -0.1379   0.0134   0.7247
  25.000   1.4676   0.20505   0.20146  -0.1433   0.0130   0.7382
