  
       XFOIL         Version 6.99
  
 Calculated polar for: Profile45_0                                     
  
 1 1 Reynolds number fixed          Mach number fixed         
  
 xtrf =   1.000 (top)        1.000 (bottom)  
 Mach =   0.000     Re =     0.750 e 6     Ncrit =   9.000
  
   alpha    CL        CD       CDp       CM     Top_Xtr  Bot_Xtr
  ------ -------- --------- --------- -------- -------- --------
  -9.000  -0.7362   0.02121   0.01484  -0.0393   0.7097   0.0235
  -8.500  -0.6842   0.01898   0.01248  -0.0438   0.6922   0.0257
  -8.000  -0.6244   0.01628   0.00970  -0.0506   0.6747   0.0378
  -7.500  -0.5579   0.01334   0.00700  -0.0589   0.6578   0.1005
  -7.000  -0.4904   0.00998   0.00441  -0.0671   0.6419   0.2776
  -6.500  -0.4264   0.00880   0.00354  -0.0704   0.6264   0.3755
  -6.000  -0.3643   0.00853   0.00328  -0.0720   0.6110   0.4132
  -5.500  -0.3027   0.00849   0.00316  -0.0732   0.5962   0.4365
  -5.000  -0.2411   0.00872   0.00330  -0.0742   0.5821   0.4606
  -4.500  -0.1801   0.00881   0.00334  -0.0751   0.5680   0.4714
  -4.000  -0.1188   0.00887   0.00331  -0.0761   0.5554   0.4778
  -3.500  -0.0574   0.00895   0.00322  -0.0772   0.5431   0.4822
  -3.000   0.0036   0.00886   0.00309  -0.0782   0.5315   0.4880
  -2.500   0.0645   0.00894   0.00311  -0.0791   0.5208   0.4929
  -2.000   0.1255   0.00903   0.00312  -0.0801   0.5104   0.4978
  -1.500   0.1864   0.00914   0.00312  -0.0811   0.5005   0.5017
  -1.000   0.2475   0.00911   0.00305  -0.0821   0.4917   0.5061
  -0.500   0.3076   0.00924   0.00312  -0.0830   0.4816   0.5106
  -0.000   0.3686   0.00928   0.00318  -0.0840   0.4746   0.5146
   0.500   0.4290   0.00940   0.00324  -0.0849   0.4666   0.5185
   1.000   0.4893   0.00957   0.00336  -0.0858   0.4588   0.5222
   1.500   0.5499   0.00960   0.00338  -0.0868   0.4522   0.5262
   2.000   0.6097   0.00971   0.00348  -0.0877   0.4451   0.5307
   2.500   0.6691   0.00994   0.00371  -0.0884   0.4387   0.5349
   3.000   0.7292   0.01006   0.00387  -0.0893   0.4347   0.5388
   3.500   0.7890   0.01020   0.00403  -0.0902   0.4291   0.5423
   4.000   0.8481   0.01044   0.00423  -0.0909   0.4233   0.5449
   4.500   0.9069   0.01062   0.00445  -0.0917   0.4178   0.5500
   5.000   0.9662   0.01071   0.00465  -0.0925   0.4125   0.5545
   5.500   1.0248   0.01088   0.00486  -0.0932   0.4058   0.5589
   6.000   1.0820   0.01126   0.00520  -0.0937   0.3978   0.5628
   6.500   1.1409   0.01131   0.00535  -0.0944   0.3909   0.5662
   7.000   1.1978   0.01151   0.00560  -0.0949   0.3801   0.5710
   7.500   1.2550   0.01173   0.00590  -0.0954   0.3715   0.5759
   8.000   1.3113   0.01202   0.00622  -0.0958   0.3606   0.5804
   8.500   1.3669   0.01230   0.00658  -0.0962   0.3456   0.5841
   9.000   1.4190   0.01285   0.00704  -0.0961   0.3129   0.5887
   9.500   1.4645   0.01394   0.00795  -0.0953   0.2699   0.5936
  10.000   1.5028   0.01546   0.00926  -0.0937   0.2227   0.5981
  10.500   1.5267   0.01774   0.01123  -0.0905   0.1666   0.6025
  11.000   1.5363   0.02026   0.01358  -0.0857   0.1289   0.6067
  11.500   1.5459   0.02348   0.01676  -0.0829   0.1057   0.6111
  12.000   1.5567   0.02726   0.02058  -0.0815   0.0904   0.6160
  12.500   1.5613   0.03195   0.02530  -0.0805   0.0777   0.6211
  13.000   1.5650   0.03691   0.03036  -0.0798   0.0698   0.6260
  13.500   1.5596   0.04290   0.03647  -0.0791   0.0609   0.6306
  14.000   1.5566   0.04874   0.04245  -0.0786   0.0549   0.6355
  14.500   1.5348   0.05688   0.05061  -0.0784   0.0424   0.6398
  15.000   1.5162   0.06504   0.05882  -0.0787   0.0332   0.6444
  15.500   1.5072   0.07237   0.06628  -0.0792   0.0280   0.6495
  16.000   1.4926   0.08056   0.07455  -0.0801   0.0231   0.6545
  16.500   1.4870   0.08775   0.08190  -0.0811   0.0202   0.6608
  17.000   1.4860   0.09442   0.08872  -0.0823   0.0191   0.6680
  17.500   1.4835   0.10142   0.09587  -0.0838   0.0181   0.6751
  18.000   1.4806   0.10855   0.10314  -0.0858   0.0172   0.6830
  18.500   1.4785   0.11562   0.11036  -0.0880   0.0163   0.6922
  19.000   1.4771   0.12262   0.11753  -0.0906   0.0154   0.7033
  19.500   1.4737   0.13005   0.12513  -0.0938   0.0147   0.7169
  20.000   1.4703   0.13751   0.13279  -0.0973   0.0140   0.7334
  20.500   1.4669   0.14497   0.14048  -0.1013   0.0135   0.7529
  21.000   1.4644   0.15240   0.14815  -0.1056   0.0131   0.7812
  21.500   1.4666   0.15835   0.15455  -0.1089   0.0130   1.0000
  22.000   1.4705   0.16467   0.16098  -0.1131   0.0129   1.0000
  22.500   1.4731   0.17126   0.16768  -0.1178   0.0127   1.0000
  23.000   1.4759   0.17780   0.17435  -0.1227   0.0126   1.0000
  23.500   1.4785   0.18436   0.18102  -0.1278   0.0124   1.0000
  24.000   1.4798   0.19117   0.18797  -0.1335   0.0122   1.0000
  24.500   1.4829   0.19762   0.19456  -0.1390   0.0121   1.0000
  25.000   1.4830   0.20466   0.20172  -0.1453   0.0119   1.0000
