  
       XFOIL         Version 6.99
  
 Calculated polar for: Profile44_0                                     
  
 1 1 Reynolds number fixed          Mach number fixed         
  
 xtrf =   1.000 (top)        1.000 (bottom)  
 Mach =   0.000     Re =     0.750 e 6     Ncrit =   9.000
  
   alpha    CL        CD       CDp       CM     Top_Xtr  Bot_Xtr
  ------ -------- --------- --------- -------- -------- --------
  -9.000  -0.7561   0.02340   0.01692  -0.0310   0.7047   0.0225
  -8.500  -0.7106   0.02080   0.01422  -0.0352   0.6859   0.0266
  -8.000  -0.6556   0.01711   0.01063  -0.0435   0.6685   0.0604
  -7.500  -0.5812   0.01167   0.00588  -0.0584   0.6515   0.2128
  -7.000  -0.5139   0.00934   0.00407  -0.0645   0.6354   0.3495
  -6.500  -0.4511   0.00886   0.00362  -0.0666   0.6198   0.3962
  -6.000  -0.3889   0.00870   0.00342  -0.0681   0.6044   0.4252
  -5.500  -0.3266   0.00882   0.00344  -0.0693   0.5891   0.4520
  -5.000  -0.2648   0.00896   0.00345  -0.0705   0.5750   0.4646
  -4.500  -0.2036   0.00895   0.00336  -0.0715   0.5617   0.4701
  -4.000  -0.1419   0.00899   0.00327  -0.0726   0.5494   0.4762
  -3.500  -0.0807   0.00898   0.00318  -0.0737   0.5375   0.4808
  -3.000  -0.0193   0.00904   0.00315  -0.0747   0.5263   0.4860
  -2.500   0.0421   0.00908   0.00308  -0.0758   0.5161   0.4908
  -2.000   0.1030   0.00915   0.00310  -0.0768   0.5064   0.4949
  -1.500   0.1644   0.00922   0.00309  -0.0778   0.4971   0.4995
  -1.000   0.2254   0.00927   0.00309  -0.0789   0.4884   0.5036
  -0.500   0.2859   0.00940   0.00316  -0.0798   0.4801   0.5076
  -0.000   0.3472   0.00945   0.00318  -0.0808   0.4718   0.5118
   0.500   0.4079   0.00952   0.00322  -0.0818   0.4644   0.5156
   1.000   0.4683   0.00964   0.00333  -0.0827   0.4574   0.5191
   1.500   0.5289   0.00976   0.00343  -0.0837   0.4506   0.5232
   2.000   0.5891   0.00990   0.00353  -0.0846   0.4445   0.5270
   2.500   0.6492   0.01002   0.00370  -0.0855   0.4388   0.5305
   3.000   0.7090   0.01019   0.00387  -0.0863   0.4329   0.5345
   3.500   0.7690   0.01036   0.00403  -0.0872   0.4276   0.5382
   4.000   0.8284   0.01049   0.00422  -0.0880   0.4219   0.5418
   4.500   0.8874   0.01071   0.00448  -0.0887   0.4165   0.5454
   5.000   0.9467   0.01088   0.00467  -0.0895   0.4102   0.5492
   5.500   1.0051   0.01108   0.00491  -0.0902   0.4032   0.5528
   6.000   1.0631   0.01129   0.00514  -0.0908   0.3941   0.5566
   6.500   1.1217   0.01144   0.00538  -0.0915   0.3857   0.5606
   7.000   1.1793   0.01162   0.00562  -0.0921   0.3752   0.5645
   7.500   1.2362   0.01186   0.00592  -0.0926   0.3633   0.5683
   8.000   1.2926   0.01218   0.00628  -0.0930   0.3532   0.5728
   8.500   1.3480   0.01250   0.00665  -0.0933   0.3371   0.5765
   9.000   1.4019   0.01295   0.00711  -0.0934   0.3183   0.5808
   9.500   1.4529   0.01361   0.00772  -0.0932   0.2918   0.5849
  10.000   1.4975   0.01472   0.00871  -0.0924   0.2573   0.5894
  10.500   1.5321   0.01644   0.01020  -0.0904   0.2095   0.5933
  11.000   1.5569   0.01851   0.01207  -0.0873   0.1676   0.5976
  11.500   1.5648   0.02115   0.01461  -0.0828   0.1372   0.6015
  12.000   1.5698   0.02502   0.01845  -0.0805   0.1126   0.6054
  12.500   1.5715   0.02986   0.02331  -0.0794   0.0953   0.6093
  13.000   1.5704   0.03527   0.02877  -0.0786   0.0815   0.6134
  13.500   1.5637   0.04137   0.03496  -0.0780   0.0713   0.6171
  14.000   1.5514   0.04817   0.04185  -0.0775   0.0626   0.6209
  14.500   1.5389   0.05524   0.04902  -0.0773   0.0545   0.6245
  15.000   1.5253   0.06281   0.05667  -0.0776   0.0459   0.6286
  15.500   1.5102   0.07078   0.06473  -0.0782   0.0382   0.6325
  16.000   1.4942   0.07909   0.07313  -0.0792   0.0306   0.6365
  16.500   1.4771   0.08775   0.08186  -0.0805   0.0237   0.6408
  17.000   1.4653   0.09592   0.09013  -0.0820   0.0202   0.6448
  17.500   1.4496   0.10484   0.09919  -0.0842   0.0171   0.6490
  18.000   1.4486   0.11179   0.10630  -0.0861   0.0167   0.6543
  18.500   1.4473   0.11884   0.11350  -0.0885   0.0163   0.6602
  19.000   1.4461   0.12594   0.12077  -0.0912   0.0159   0.6663
  19.500   1.4460   0.13294   0.12793  -0.0942   0.0157   0.6727
  20.000   1.4458   0.13995   0.13512  -0.0976   0.0154   0.6794
  20.500   1.4461   0.14698   0.14231  -0.1013   0.0151   0.6868
  21.000   1.4472   0.15384   0.14934  -0.1053   0.0150   0.6954
  21.500   1.4490   0.16060   0.15628  -0.1095   0.0148   0.7057
  22.000   1.4511   0.16732   0.16317  -0.1139   0.0146   0.7179
  22.500   1.4543   0.17381   0.16984  -0.1185   0.0146   0.7328
  23.000   1.4584   0.18017   0.17640  -0.1232   0.0145   0.7528
  23.500   1.4628   0.18642   0.18289  -0.1281   0.0144   0.7888
  24.000   1.4654   0.19241   0.18928  -0.1327   0.0141   1.0000
  24.500   1.4703   0.19840   0.19540  -0.1377   0.0142   1.0000
  25.000   1.4738   0.20481   0.20192  -0.1434   0.0141   1.0000
