  
       XFOIL         Version 6.99
  
 Calculated polar for: Profile46_-10                                   
  
 1 1 Reynolds number fixed          Mach number fixed         
  
 xtrf =   1.000 (top)        1.000 (bottom)  
 Mach =   0.000     Re =     0.750 e 6     Ncrit =   9.000
  
   alpha    CL        CD       CDp       CM     Top_Xtr  Bot_Xtr
  ------ -------- --------- --------- -------- -------- --------
  -9.000  -1.2043   0.03188   0.02441   0.0268   0.6501   0.0055
  -8.500  -1.1787   0.02924   0.02172   0.0277   0.6430   0.0064
  -8.000  -1.1501   0.02704   0.01946   0.0287   0.6355   0.0070
  -7.500  -1.1182   0.02516   0.01756   0.0298   0.6280   0.0073
  -7.000  -1.0820   0.02364   0.01606   0.0306   0.6208   0.0076
  -6.500  -1.0431   0.02231   0.01474   0.0313   0.6130   0.0077
  -6.000  -1.0024   0.02107   0.01348   0.0319   0.6051   0.0078
  -5.500  -0.9664   0.01940   0.01171   0.0327   0.5969   0.0082
  -5.000  -0.9262   0.01800   0.01022   0.0330   0.5884   0.0087
  -4.500  -0.8772   0.01688   0.00901   0.0323   0.5797   0.0094
  -4.000  -0.8261   0.01603   0.00811   0.0320   0.5713   0.0103
  -3.500  -0.7733   0.01529   0.00730   0.0316   0.5627   0.0116
  -3.000  -0.7188   0.01464   0.00665   0.0311   0.5535   0.0135
  -2.500  -0.6652   0.01374   0.00587   0.0306   0.5448   0.0396
  -2.000  -0.6222   0.01017   0.00365   0.0289   0.5365   0.3112
  -1.500  -0.5658   0.00893   0.00314   0.0275   0.5279   0.4609
  -1.000  -0.5051   0.00889   0.00306   0.0266   0.5194   0.4809
  -0.500  -0.4443   0.00886   0.00299   0.0257   0.5107   0.4942
  -0.000  -0.3836   0.00883   0.00291   0.0248   0.5024   0.5022
   0.500  -0.3227   0.00886   0.00284   0.0239   0.4941   0.5096
   1.000  -0.2616   0.00886   0.00284   0.0229   0.4861   0.5202
   1.500  -0.2007   0.00895   0.00290   0.0220   0.4785   0.5322
   2.000  -0.1395   0.00897   0.00286   0.0210   0.4711   0.5379
   2.500  -0.0789   0.00893   0.00281   0.0200   0.4646   0.5428
   3.000  -0.0180   0.00894   0.00281   0.0190   0.4579   0.5479
   3.500   0.0430   0.00903   0.00282   0.0179   0.4517   0.5524
   4.000   0.1037   0.00898   0.00284   0.0168   0.4463   0.5571
   4.500   0.1645   0.00904   0.00288   0.0158   0.4410   0.5619
   5.500   0.2862   0.00914   0.00303   0.0135   0.4317   0.5721
   6.000   0.3468   0.00925   0.00313   0.0124   0.4267   0.5776
   6.500   0.4075   0.00933   0.00327   0.0112   0.4228   0.5826
   7.500   0.5284   0.00955   0.00355   0.0088   0.4114   0.5949
   8.000   0.5892   0.00957   0.00369   0.0076   0.4055   0.6015
   8.500   0.6493   0.00960   0.00368   0.0064   0.3844   0.6083
   9.000   0.7096   0.00967   0.00382   0.0050   0.3649   0.6159
   9.500   0.7696   0.00984   0.00402   0.0037   0.3483   0.6246
  10.000   0.8283   0.01022   0.00432   0.0023   0.3036   0.6343
  10.500   0.8802   0.01198   0.00561   0.0006   0.2093   0.6471
  11.000   0.9281   0.01441   0.00757  -0.0016   0.1087   0.6683
  11.500   0.9796   0.01613   0.00927  -0.0034   0.0750   0.7368
  12.000   1.0325   0.01752   0.01061  -0.0053   0.0628   0.7532
  12.500   1.0740   0.02153   0.01445  -0.0102   0.0200   0.7638
  13.000   1.1162   0.02450   0.01750  -0.0143   0.0166   0.7720
  13.500   1.1402   0.02818   0.02126  -0.0170   0.0146   0.7787
  14.000   1.1605   0.03174   0.02491  -0.0182   0.0138   0.7846
  14.500   1.1742   0.03574   0.02898  -0.0190   0.0118   0.7895
  15.000   1.1815   0.04028   0.03360  -0.0197   0.0092   0.7932
  15.500   1.1924   0.04460   0.03800  -0.0204   0.0085   0.7963
  16.000   1.2045   0.04890   0.04240  -0.0211   0.0083   0.7994
  16.500   1.2161   0.05338   0.04698  -0.0220   0.0082   0.8018
  17.000   1.2273   0.05802   0.05173  -0.0230   0.0081   0.8037
  17.500   1.2377   0.06285   0.05666  -0.0242   0.0081   0.8052
  18.000   1.2458   0.06797   0.06191  -0.0254   0.0075   0.8067
  18.500   1.2386   0.07509   0.06908  -0.0271   0.0034   0.8078
  19.000   1.2432   0.08093   0.07502  -0.0288   0.0030   0.8088
  19.500   1.2475   0.08689   0.08109  -0.0306   0.0028   0.8095
  20.000   1.2516   0.09296   0.08729  -0.0326   0.0027   0.8100
  20.500   1.2550   0.09923   0.09367  -0.0348   0.0026   0.8105
  21.000   1.2579   0.10564   0.10021  -0.0372   0.0026   0.8112
  21.500   1.2600   0.11227   0.10697  -0.0400   0.0025   0.8116
  22.000   1.2612   0.11915   0.11398  -0.0431   0.0025   0.8119
  22.500   1.2619   0.12622   0.12117  -0.0467   0.0025   0.8120
  23.000   1.2620   0.13345   0.12852  -0.0506   0.0024   0.8124
  23.500   1.2617   0.14085   0.13605  -0.0549   0.0024   0.8126
  24.000   1.2610   0.14836   0.14370  -0.0597   0.0024   0.8127
  24.500   1.2581   0.15635   0.15184  -0.0650   0.0024   0.8130
  25.000   1.2548   0.16451   0.16014  -0.0708   0.0024   0.8143
