  
       XFOIL         Version 6.99
  
 Calculated polar for: Profile46_10                                    
  
 1 1 Reynolds number fixed          Mach number fixed         
  
 xtrf =   1.000 (top)        1.000 (bottom)  
 Mach =   0.000     Re =     0.750 e 6     Ncrit =   9.000
  
   alpha    CL        CD       CDp       CM     Top_Xtr  Bot_Xtr
  ------ -------- --------- --------- -------- -------- --------
  -9.000   0.0825   0.00944   0.00478  -0.1853   0.7927   0.3647
  -8.500   0.1471   0.00911   0.00445  -0.1876   0.7888   0.3954
  -8.000   0.2105   0.00889   0.00417  -0.1894   0.7841   0.4163
  -7.500   0.2729   0.00877   0.00405  -0.1909   0.7785   0.4401
  -7.000   0.3349   0.00875   0.00395  -0.1921   0.7720   0.4588
  -6.500   0.3958   0.00859   0.00379  -0.1931   0.7639   0.4653
  -6.000   0.4569   0.00837   0.00353  -0.1942   0.7529   0.4717
  -5.500   0.5176   0.00833   0.00359  -0.1954   0.7029   0.4779
  -5.000   0.5677   0.00859   0.00325  -0.1942   0.6331   0.4828
  -4.500   0.6223   0.00902   0.00351  -0.1942   0.6020   0.4875
  -4.000   0.6783   0.00934   0.00367  -0.1946   0.5787   0.4929
  -3.500   0.7334   0.00967   0.00392  -0.1946   0.5597   0.4974
  -3.000   0.7897   0.00995   0.00408  -0.1949   0.5434   0.5024
  -2.500   0.8446   0.01022   0.00432  -0.1950   0.5290   0.5062
  -2.000   0.8990   0.01053   0.00457  -0.1949   0.5160   0.5105
  -1.500   0.9534   0.01083   0.00477  -0.1949   0.5042   0.5149
  -1.000   1.0065   0.01114   0.00508  -0.1945   0.4934   0.5184
  -0.500   1.0595   0.01146   0.00537  -0.1942   0.4831   0.5226
  -0.000   1.1121   0.01177   0.00567  -0.1939   0.4734   0.5267
   0.500   1.1625   0.01213   0.00605  -0.1930   0.4649   0.5302
   1.000   1.2111   0.01255   0.00643  -0.1919   0.4569   0.5346
   1.500   1.2581   0.01289   0.00680  -0.1905   0.4494   0.5385
   2.000   1.3032   0.01337   0.00733  -0.1888   0.4421   0.5418
   2.500   1.3500   0.01390   0.00785  -0.1876   0.4332   0.5458
   3.000   1.3978   0.01437   0.00837  -0.1865   0.4249   0.5497
   3.500   1.4430   0.01496   0.00901  -0.1851   0.4166   0.5531
   4.000   1.4868   0.01566   0.00973  -0.1835   0.4076   0.5570
   4.500   1.5320   0.01629   0.01041  -0.1822   0.4003   0.5607
   5.000   1.5760   0.01699   0.01120  -0.1808   0.3929   0.5642
   5.500   1.6164   0.01788   0.01213  -0.1789   0.3795   0.5684
   6.000   1.6536   0.01897   0.01319  -0.1767   0.3615   0.5721
   6.500   1.6891   0.02019   0.01440  -0.1742   0.3390   0.5757
   7.000   1.7042   0.02270   0.01653  -0.1694   0.2712   0.5796
   7.500   1.7112   0.02580   0.01935  -0.1637   0.2191   0.5825
   8.000   1.7122   0.02942   0.02267  -0.1578   0.1691   0.5858
   8.500   1.7101   0.03342   0.02648  -0.1519   0.1295   0.5886
   9.000   1.7153   0.03714   0.03013  -0.1473   0.1070   0.5918
   9.500   1.7232   0.04088   0.03386  -0.1433   0.0912   0.5953
  10.500   1.7311   0.04985   0.04289  -0.1362   0.0681   0.6013
  11.000   1.7349   0.05496   0.04810  -0.1337   0.0600   0.6044
  11.500   1.7359   0.06072   0.05395  -0.1317   0.0517   0.6074
  12.000   1.7225   0.06840   0.06166  -0.1299   0.0386   0.6100
  12.500   1.7091   0.07627   0.06961  -0.1287   0.0303   0.6124
  13.000   1.6996   0.08373   0.07720  -0.1279   0.0253   0.6148
  13.500   1.6918   0.09109   0.08467  -0.1275   0.0215   0.6180
  14.000   1.6868   0.09813   0.09184  -0.1275   0.0191   0.6204
  14.500   1.6818   0.10525   0.09908  -0.1280   0.0164   0.6236
  15.000   1.6833   0.11150   0.10545  -0.1287   0.0150   0.6264
  15.500   1.6850   0.11772   0.11179  -0.1297   0.0137   0.6299
  16.000   1.6844   0.12424   0.11840  -0.1311   0.0118   0.6329
  16.500   1.6861   0.13048   0.12472  -0.1329   0.0100   0.6362
  17.000   1.6906   0.13626   0.13063  -0.1347   0.0095   0.6393
  17.500   1.6956   0.14194   0.13641  -0.1368   0.0090   0.6429
  18.000   1.6995   0.14779   0.14235  -0.1393   0.0082   0.6461
  18.500   1.7004   0.15407   0.14868  -0.1423   0.0069   0.6498
  19.000   1.7038   0.15992   0.15466  -0.1454   0.0065   0.6527
  19.500   1.7067   0.16588   0.16073  -0.1488   0.0058   0.6565
  20.000   1.7099   0.17175   0.16674  -0.1524   0.0056   0.6593
  20.500   1.7127   0.17770   0.17281  -0.1563   0.0055   0.6635
  21.000   1.7147   0.18371   0.17897  -0.1606   0.0054   0.6661
  21.500   1.7156   0.18998   0.18537  -0.1654   0.0052   0.6699
  22.000   1.7153   0.19644   0.19199  -0.1706   0.0052   0.6724
  22.500   1.7145   0.20302   0.19872  -0.1762   0.0050   0.6763
  23.000   1.7117   0.20991   0.20577  -0.1823   0.0049   0.6786
  23.500   1.7087   0.21695   0.21296  -0.1889   0.0047   0.6820
  24.000   1.7038   0.22421   0.22039  -0.1959   0.0046   0.6844
  24.500   1.6984   0.23173   0.22808  -0.2034   0.0046   0.6871
  25.000   1.6933   0.23934   0.23586  -0.2114   0.0045   0.6900
