  
       XFOIL         Version 6.99
  
 Calculated polar for: Profile45_-10                                   
  
 1 1 Reynolds number fixed          Mach number fixed         
  
 xtrf =   1.000 (top)        1.000 (bottom)  
 Mach =   0.000     Re =     0.750 e 6     Ncrit =   9.000
  
   alpha    CL        CD       CDp       CM     Top_Xtr  Bot_Xtr
  ------ -------- --------- --------- -------- -------- --------
  -9.000  -1.1699   0.03969   0.03285   0.0341   0.6397   0.0107
  -8.500  -1.1500   0.03627   0.02935   0.0346   0.6322   0.0109
  -8.000  -1.1256   0.03326   0.02626   0.0349   0.6250   0.0111
  -7.500  -1.0995   0.03038   0.02330   0.0353   0.6175   0.0113
  -7.000  -1.0829   0.02685   0.01961   0.0362   0.6100   0.0117
  -6.500  -1.0603   0.02409   0.01670   0.0374   0.6021   0.0124
  -6.000  -1.0312   0.02187   0.01435   0.0384   0.5937   0.0134
  -5.500  -0.9969   0.01999   0.01239   0.0391   0.5845   0.0146
  -5.000  -0.9591   0.01841   0.01077   0.0393   0.5749   0.0159
  -4.000  -0.8625   0.01567   0.00805   0.0375   0.5570   0.0372
  -3.500  -0.8157   0.01383   0.00653   0.0366   0.5468   0.1076
  -3.000  -0.7732   0.01015   0.00414   0.0347   0.5398   0.3442
  -2.500  -0.7156   0.00926   0.00366   0.0335   0.5305   0.4377
  -2.000  -0.6549   0.00922   0.00360   0.0326   0.5215   0.4680
  -1.500  -0.5938   0.00922   0.00361   0.0317   0.5136   0.4840
  -1.000  -0.5329   0.00924   0.00353   0.0309   0.5042   0.4949
  -0.500  -0.4718   0.00931   0.00357   0.0300   0.4965   0.5036
  -0.000  -0.4104   0.00936   0.00355   0.0291   0.4891   0.5099
   0.500  -0.3493   0.00936   0.00341   0.0281   0.4807   0.5129
   1.000  -0.2888   0.00919   0.00324   0.0272   0.4739   0.5189
   1.500  -0.2276   0.00914   0.00319   0.0262   0.4680   0.5236
   2.000  -0.1664   0.00915   0.00314   0.0252   0.4614   0.5279
   2.500  -0.1054   0.00926   0.00315   0.0241   0.4528   0.5318
   3.000  -0.0437   0.00926   0.00314   0.0230   0.4484   0.5350
   3.500   0.0173   0.00916   0.00305   0.0220   0.4432   0.5401
   4.000   0.0783   0.00914   0.00304   0.0209   0.4378   0.5449
   4.500   0.1392   0.00927   0.00313   0.0198   0.4318   0.5491
   5.000   0.2004   0.00937   0.00325   0.0186   0.4282   0.5535
   5.500   0.2618   0.00945   0.00335   0.0174   0.4250   0.5576
   6.000   0.3229   0.00945   0.00339   0.0163   0.4203   0.5618
   6.500   0.3837   0.00948   0.00347   0.0151   0.4156   0.5671
   7.000   0.4444   0.00964   0.00364   0.0139   0.4106   0.5720
   7.500   0.5050   0.00987   0.00389   0.0127   0.4054   0.5771
   8.000   0.5662   0.00980   0.00393   0.0115   0.3990   0.5820
   8.500   0.6269   0.00985   0.00404   0.0102   0.3918   0.5874
   9.000   0.6868   0.01008   0.00428   0.0091   0.3827   0.5926
   9.500   0.7477   0.01012   0.00445   0.0078   0.3779   0.5985
  10.000   0.8082   0.01020   0.00465   0.0065   0.3702   0.6052
  10.500   0.8678   0.01041   0.00489   0.0052   0.3583   0.6124
  11.000   0.9280   0.01053   0.00509   0.0038   0.3401   0.6200
  11.500   0.9867   0.01092   0.00546   0.0024   0.3055   0.6288
  12.000   1.0415   0.01209   0.00643   0.0007   0.2499   0.6393
  12.500   1.0941   0.01363   0.00779  -0.0012   0.1972   0.6541
  13.000   1.1442   0.01556   0.00974  -0.0036   0.1489   0.6906
  13.500   1.1925   0.01817   0.01225  -0.0067   0.1158   0.7470
  14.000   1.2385   0.02134   0.01541  -0.0113   0.0954   0.7602
  14.500   1.2713   0.02568   0.01980  -0.0168   0.0828   0.7699
  15.000   1.2746   0.03097   0.02514  -0.0190   0.0731   0.7770
  15.500   1.2839   0.03536   0.02963  -0.0199   0.0678   0.7830
  16.000   1.2780   0.04119   0.03549  -0.0208   0.0575   0.7878
  16.500   1.2707   0.04736   0.04167  -0.0218   0.0463   0.7922
  17.000   1.2630   0.05386   0.04816  -0.0230   0.0362   0.7959
  17.500   1.2619   0.05982   0.05422  -0.0242   0.0311   0.7989
  18.000   1.2580   0.06624   0.06069  -0.0256   0.0259   0.8011
  18.500   1.2603   0.07213   0.06668  -0.0271   0.0230   0.8032
  19.000   1.2615   0.07827   0.07292  -0.0288   0.0217   0.8049
  19.500   1.2642   0.08425   0.07897  -0.0305   0.0202   0.8064
  20.000   1.2614   0.09113   0.08595  -0.0326   0.0189   0.8076
  20.500   1.2607   0.09785   0.09276  -0.0349   0.0177   0.8089
  21.000   1.2593   0.10482   0.09984  -0.0376   0.0165   0.8103
  21.500   1.2551   0.11230   0.10746  -0.0407   0.0156   0.8114
  22.000   1.2570   0.11894   0.11423  -0.0437   0.0150   0.8121
  22.500   1.2597   0.12562   0.12104  -0.0472   0.0149   0.8126
  23.000   1.2669   0.13158   0.12712  -0.0506   0.0146   0.8131
  23.500   1.2701   0.13823   0.13388  -0.0545   0.0142   0.8134
  24.000   1.2751   0.14464   0.14039  -0.0587   0.0137   0.8137
  24.500   1.2789   0.15118   0.14703  -0.0632   0.0132   0.8139
  25.000   1.2790   0.15848   0.15440  -0.0684   0.0123   0.8139
