  
       XFOIL         Version 6.99
  
 Calculated polar for: Profile43_10                                    
  
 1 1 Reynolds number fixed          Mach number fixed         
  
 xtrf =   1.000 (top)        1.000 (bottom)  
 Mach =   0.000     Re =     0.750 e 6     Ncrit =   9.000
  
   alpha    CL        CD       CDp       CM     Top_Xtr  Bot_Xtr
  ------ -------- --------- --------- -------- -------- --------
  -9.000  -0.0017   0.00986   0.00534  -0.1692   0.7916   0.3723
  -8.500   0.0649   0.00939   0.00482  -0.1720   0.7848   0.3968
  -8.000   0.1292   0.00913   0.00460  -0.1740   0.7776   0.4165
  -7.500   0.1924   0.00905   0.00443  -0.1755   0.7696   0.4277
  -7.000   0.2523   0.00905   0.00455  -0.1760   0.7590   0.4461
  -6.500   0.3141   0.00888   0.00438  -0.1772   0.7418   0.4516
  -6.000   0.3687   0.00918   0.00421  -0.1771   0.6377   0.4570
  -5.000   0.4845   0.00987   0.00447  -0.1786   0.5749   0.4635
  -4.500   0.5431   0.01010   0.00456  -0.1794   0.5557   0.4666
  -4.000   0.6026   0.01012   0.00450  -0.1805   0.5386   0.4752
  -3.500   0.6613   0.01030   0.00466  -0.1812   0.5267   0.4799
  -3.000   0.7185   0.01057   0.00486  -0.1816   0.5119   0.4839
  -2.500   0.7756   0.01083   0.00508  -0.1819   0.4989   0.4881
  -2.000   0.8339   0.01100   0.00526  -0.1825   0.4907   0.4927
  -1.500   0.8907   0.01124   0.00543  -0.1829   0.4795   0.4961
  -1.000   0.9448   0.01162   0.00571  -0.1828   0.4639   0.4987
  -0.500   1.0020   0.01181   0.00591  -0.1832   0.4589   0.5005
  -0.000   1.0601   0.01185   0.00596  -0.1839   0.4530   0.5049
   0.500   1.1149   0.01206   0.00618  -0.1839   0.4449   0.5104
   1.000   1.1653   0.01250   0.00659  -0.1830   0.4346   0.5147
   1.500   1.2146   0.01305   0.00710  -0.1820   0.4215   0.5188
   2.000   1.2677   0.01319   0.00731  -0.1816   0.4157   0.5224
   2.500   1.3132   0.01354   0.00765  -0.1799   0.4042   0.5258
   3.000   1.3512   0.01431   0.00828  -0.1772   0.3847   0.5287
   3.500   1.4017   0.01470   0.00873  -0.1766   0.3784   0.5311
   4.000   1.4497   0.01521   0.00927  -0.1756   0.3705   0.5326
   4.500   1.4922   0.01597   0.00997  -0.1740   0.3541   0.5374
   5.000   1.5347   0.01678   0.01080  -0.1723   0.3407   0.5409
   5.500   1.5701   0.01799   0.01187  -0.1697   0.3122   0.5449
   6.000   1.5956   0.01986   0.01346  -0.1660   0.2666   0.5490
   6.500   1.6078   0.02264   0.01582  -0.1609   0.2057   0.5520
   7.000   1.6075   0.02636   0.01909  -0.1548   0.1404   0.5541
   7.500   1.6042   0.03039   0.02285  -0.1488   0.0898   0.5564
   8.500   1.6105   0.03810   0.03039  -0.1393   0.0438   0.5609
   9.000   1.6171   0.04211   0.03444  -0.1357   0.0344   0.5635
   9.500   1.6217   0.04663   0.03899  -0.1325   0.0260   0.5661
  10.000   1.6218   0.05211   0.04453  -0.1299   0.0191   0.5680
  10.500   1.6153   0.05890   0.05143  -0.1281   0.0126   0.5698
  11.000   1.6139   0.06543   0.05809  -0.1271   0.0104   0.5723
  11.500   1.6109   0.07234   0.06513  -0.1265   0.0091   0.5756
  12.000   1.6035   0.07980   0.07277  -0.1262   0.0080   0.5775
  12.500   1.5963   0.08731   0.08044  -0.1262   0.0071   0.5797
  13.000   1.5966   0.09378   0.08702  -0.1265   0.0059   0.5823
  13.500   1.5801   0.10272   0.09612  -0.1278   0.0020   0.5840
  14.000   1.5768   0.10993   0.10345  -0.1292   0.0018   0.5868
  14.500   1.5774   0.11649   0.11014  -0.1307   0.0016   0.5887
  15.000   1.5823   0.12236   0.11613  -0.1323   0.0016   0.5915
  15.500   1.5795   0.12955   0.12347  -0.1349   0.0014   0.5939
  16.000   1.5868   0.13499   0.12901  -0.1368   0.0014   0.5962
  16.500   1.5861   0.14181   0.13598  -0.1398   0.0013   0.5984
  17.000   1.5909   0.14760   0.14188  -0.1425   0.0013   0.6010
  17.500   1.5994   0.15277   0.14716  -0.1451   0.0013   0.6038
  18.000   1.5974   0.15972   0.15427  -0.1492   0.0013   0.6060
  18.500   1.6034   0.16531   0.15997  -0.1525   0.0013   0.6084
  19.000   1.6109   0.17044   0.16525  -0.1557   0.0012   0.6112
  19.500   1.6081   0.17756   0.17254  -0.1608   0.0012   0.6138
  20.000   1.6128   0.18316   0.17827  -0.1649   0.0012   0.6169
  20.500   1.6197   0.18831   0.18353  -0.1687   0.0012   0.6206
  21.000   1.6233   0.19408   0.18944  -0.1735   0.0012   0.6234
  21.500   1.6201   0.20123   0.19675  -0.1796   0.0012   0.6258
  22.000   1.6236   0.20697   0.20263  -0.1848   0.0012   0.6289
  22.500   1.6162   0.21500   0.21085  -0.1924   0.0012   0.6312
  23.000   1.6197   0.22071   0.21669  -0.1978   0.0012   0.6343
  23.500   1.6232   0.22639   0.22249  -0.2036   0.0012   0.6371
  24.000   1.6117   0.23555   0.23186  -0.2131   0.0012   0.6394
  24.500   1.6135   0.24151   0.23794  -0.2194   0.0012   0.6420
  25.000   1.5998   0.25144   0.24810  -0.2301   0.0012   0.6439
