
This summary information was generated by ElastoDyn on 17-Jul-2019 at 11:19:43.


Turbine features:

            Upwind, three-bladed rotor with rigid hub.
            The model has 2 of 24 DOFs active (enabled) at start-up.
 Disabled   Platform horizontal surge translation DOF 
 Disabled   Platform horizontal sway translation DOF 
 Disabled   Platform vertical heave translation DOF 
 Disabled   Platform roll tilt rotation DOF 
 Disabled   Platform pitch tilt rotation DOF 
 Disabled   Platform yaw rotation DOF 
 Disabled   1st tower fore-aft bending mode DOF 
 Disabled   1st tower side-to-side bending mode DOF 
 Disabled   2nd tower fore-aft bending mode DOF 
 Disabled   2nd tower side-to-side bending mode DOF 
 Enabled    Nacelle yaw DOF 
 Disabled   Rotor-furl DOF 
 Enabled    Variable speed generator DOF 
 Disabled   Drivetrain rotational-flexibility DOF 
 Disabled   Tail-furl DOF 
 Disabled   1st flapwise bending-mode DOF of blade 1 
 Disabled   1st edgewise bending-mode DOF of blade 1 
 Disabled   2nd flapwise bending-mode DOF of blade 1 
 Disabled   1st flapwise bending-mode DOF of blade 2 
 Disabled   1st edgewise bending-mode DOF of blade 2 
 Disabled   2nd flapwise bending-mode DOF of blade 2 
 Disabled   1st flapwise bending-mode DOF of blade 3 
 Disabled   1st edgewise bending-mode DOF of blade 3 
 Disabled   2nd flapwise bending-mode DOF of blade 3 


Time steps:

    Structural            (s)        0.01000000


Some calculated parameters:

    Hub-Height            (m)           143.704
    Flexible Tower Length (m)           140.000
    Flexible Blade Length (m)           100.176


Rotor mass properties:

    Rotor Mass            (kg)       248656.812
    Rotor Inertia         (kg-m^2)307357376.000
                                        Blade 1      Blade 2      Blade 3
                                        -------      -------      -------
    Mass                  (kg)        62479.730    62479.730    62479.730
    Second Mass Moment    (kg-m^2) 91242336.000 91242336.000 91242336.000
    First Mass Moment     (kg-m)    1791012.000  1791012.000  1791012.000
    Center of Mass        (m)            28.665       28.665       28.665


Additional mass properties:

    Tower-top Mass        (kg)       657734.250
    Tower Mass            (kg)       555301.750
    Platform Mass         (kg)            0.000
    Mass Incl. Platform   (kg)      1213036.000


Interpolated tower properties:

Node  TwFract   HNodes  DHNodes  TMassDen    FAStiff    SSStiff
 (-)      (-)      (m)      (m)    (kg/m)     (Nm^2)     (Nm^2)
   1    0.025    3.500    7.000  5501.260  5.945E+11  5.945E+11
   2    0.075   10.500    7.000  5322.040  5.547E+11  5.547E+11
   3    0.125   17.500    7.000  5145.763  5.169E+11  5.169E+11
   4    0.175   24.500    7.000  4972.427  4.812E+11  4.812E+11
   5    0.225   31.500    7.000  4802.038  4.472E+11  4.472E+11
   6    0.275   38.500    7.000  4634.593  4.152E+11  4.152E+11
   7    0.325   45.500    7.000  4470.090  3.848E+11  3.848E+11
   8    0.375   52.500    7.000  4308.530  3.562E+11  3.562E+11
   9    0.425   59.500    7.000  4149.915  3.292E+11  3.292E+11
  10    0.475   66.500    7.000  3994.245  3.037E+11  3.037E+11
  11    0.525   73.500    7.000  3841.515  2.798E+11  2.798E+11
  12    0.575   80.500    7.000  3691.725  2.573E+11  2.573E+11
  13    0.625   87.500    7.000  3544.880  2.361E+11  2.361E+11
  14    0.675   94.500    7.000  3400.980  2.163E+11  2.163E+11
  15    0.725  101.500    7.000  3260.025  1.978E+11  1.978E+11
  16    0.775  108.500    7.000  3122.015  1.805E+11  1.805E+11
  17    0.825  115.500    7.000  2986.945  1.643E+11  1.643E+11
  18    0.875  122.500    7.000  2854.815  1.493E+11  1.493E+11
  19    0.925  129.500    7.000  2725.630  1.353E+11  1.353E+11
  20    0.975  136.500    7.000  2599.390  1.223E+11  1.223E+11


Interpolated blade 1 properties:

Node  BlFract   RNodes  DRNodes PitchAxis  StrcTwst  BMassDen    FlpStff    EdgStff
 (-)      (-)      (m)      (m)       (-)     (deg)    (kg/m)     (Nm^2)     (Nm^2)
   1    0.029    5.952    5.893     0.484    19.162  2430.439  8.355E+10  8.408E+10
   2    0.088   11.844    5.893     0.436    16.668  1636.222  4.372E+10  5.426E+10
   3    0.147   17.737    5.893     0.382    13.831  1010.238  1.857E+10  2.685E+10
   4    0.206   23.630    5.893     0.337    10.842   623.840  1.014E+10  1.338E+10
   5    0.265   29.523    5.893     0.309     8.220   568.590  7.649E+09  1.118E+10
   6    0.324   35.415    5.893     0.293     6.836   556.847  6.321E+09  1.001E+10
   7    0.382   41.308    5.893     0.285     5.893   551.986  4.989E+09  8.323E+09
   8    0.441   47.201    5.893     0.282     5.061   537.153  3.767E+09  6.486E+09
   9    0.500   53.093    5.893     0.283     4.164   510.176  2.747E+09  4.996E+09
  10    0.559   58.986    5.893     0.285     3.305   468.213  1.871E+09  3.661E+09
  11    0.618   64.879    5.893     0.287     2.432   421.068  1.197E+09  2.562E+09
  12    0.676   70.771    5.893     0.290     1.523   375.853  7.272E+08  1.706E+09
  13    0.735   76.664    5.893     0.296     0.616   327.028  4.076E+08  1.042E+09
  14    0.794   82.557    5.893     0.304    -0.430   273.970  1.993E+08  6.283E+08
  15    0.853   88.450    5.893     0.312    -1.769   192.599  7.257E+07  3.037E+08
  16    0.912   94.342    5.893     0.321    -3.502   103.211  1.720E+07  1.014E+08
  17    0.971  100.235    5.893     0.332    -5.569    15.465  9.845E+05  9.988E+06


Interpolated blade 2 properties:

Node  BlFract   RNodes  DRNodes PitchAxis  StrcTwst  BMassDen    FlpStff    EdgStff
 (-)      (-)      (m)      (m)       (-)     (deg)    (kg/m)     (Nm^2)     (Nm^2)
   1    0.029    5.952    5.893     0.484    19.162  2430.439  8.355E+10  8.408E+10
   2    0.088   11.844    5.893     0.436    16.668  1636.222  4.372E+10  5.426E+10
   3    0.147   17.737    5.893     0.382    13.831  1010.238  1.857E+10  2.685E+10
   4    0.206   23.630    5.893     0.337    10.842   623.840  1.014E+10  1.338E+10
   5    0.265   29.523    5.893     0.309     8.220   568.590  7.649E+09  1.118E+10
   6    0.324   35.415    5.893     0.293     6.836   556.847  6.321E+09  1.001E+10
   7    0.382   41.308    5.893     0.285     5.893   551.986  4.989E+09  8.323E+09
   8    0.441   47.201    5.893     0.282     5.061   537.153  3.767E+09  6.486E+09
   9    0.500   53.093    5.893     0.283     4.164   510.176  2.747E+09  4.996E+09
  10    0.559   58.986    5.893     0.285     3.305   468.213  1.871E+09  3.661E+09
  11    0.618   64.879    5.893     0.287     2.432   421.068  1.197E+09  2.562E+09
  12    0.676   70.771    5.893     0.290     1.523   375.853  7.272E+08  1.706E+09
  13    0.735   76.664    5.893     0.296     0.616   327.028  4.076E+08  1.042E+09
  14    0.794   82.557    5.893     0.304    -0.430   273.970  1.993E+08  6.283E+08
  15    0.853   88.450    5.893     0.312    -1.769   192.599  7.257E+07  3.037E+08
  16    0.912   94.342    5.893     0.321    -3.502   103.211  1.720E+07  1.014E+08
  17    0.971  100.235    5.893     0.332    -5.569    15.465  9.845E+05  9.988E+06


Interpolated blade 3 properties:

Node  BlFract   RNodes  DRNodes PitchAxis  StrcTwst  BMassDen    FlpStff    EdgStff
 (-)      (-)      (m)      (m)       (-)     (deg)    (kg/m)     (Nm^2)     (Nm^2)
   1    0.029    5.952    5.893     0.484    19.162  2430.439  8.355E+10  8.408E+10
   2    0.088   11.844    5.893     0.436    16.668  1636.222  4.372E+10  5.426E+10
   3    0.147   17.737    5.893     0.382    13.831  1010.238  1.857E+10  2.685E+10
   4    0.206   23.630    5.893     0.337    10.842   623.840  1.014E+10  1.338E+10
   5    0.265   29.523    5.893     0.309     8.220   568.590  7.649E+09  1.118E+10
   6    0.324   35.415    5.893     0.293     6.836   556.847  6.321E+09  1.001E+10
   7    0.382   41.308    5.893     0.285     5.893   551.986  4.989E+09  8.323E+09
   8    0.441   47.201    5.893     0.282     5.061   537.153  3.767E+09  6.486E+09
   9    0.500   53.093    5.893     0.283     4.164   510.176  2.747E+09  4.996E+09
  10    0.559   58.986    5.893     0.285     3.305   468.213  1.871E+09  3.661E+09
  11    0.618   64.879    5.893     0.287     2.432   421.068  1.197E+09  2.562E+09
  12    0.676   70.771    5.893     0.290     1.523   375.853  7.272E+08  1.706E+09
  13    0.735   76.664    5.893     0.296     0.616   327.028  4.076E+08  1.042E+09
  14    0.794   82.557    5.893     0.304    -0.430   273.970  1.993E+08  6.283E+08
  15    0.853   88.450    5.893     0.312    -1.769   192.599  7.257E+07  3.037E+08
  16    0.912   94.342    5.893     0.321    -3.502   103.211  1.720E+07  1.014E+08
  17    0.971  100.235    5.893     0.332    -5.569    15.465  9.845E+05  9.988E+06


Requested Outputs:


 Col   Parameter  Units     
 ---   ---------- ----------
   0   Time       (s)       
   1   Azimuth    (deg)     
   2   BldPitch1  (deg)     
   3   GenSpeed   (rpm)     
   4   IPDefl1    (m)       
   5   LSSGagMya  (kN-m)    
   6   LSSGagMza  (kN-m)    
   7   OoPDefl1   (m)       
   8   RootFxb1   (kN)      
   9   RootFyb1   (kN)      
  10   RootFzb1   (kN)      
  11   RootMxb1   (kN-m)    
  12   RootMyb1   (kN-m)    
  13   RootMzb1   (kN-m)    
  14   RotSpeed   (rpm)     
  15   RotThrust  (kN)      
  16   RotTorq    (kN-m)    
  17   Spn2MLxb1  (kN-m)    
  18   Spn2MLyb1  (kN-m)    
  19   TTDspFA    (m)       
  20   TTDspSS    (m)       
  21   TTDspTwst  (deg)     
  22   TwrBsFxt   (kN)      
  23   TwrBsFyt   (kN)      
  24   TwrBsFzt   (kN)      
  25   TwrBsMxt   (kN-m)    
  26   TwrBsMyt   (kN-m)    
  27   TwrBsMzt   (kN-m)    
  28   TwstDefl1  (deg)     
  29   YawBrFxp   (kN)      
  30   YawBrFyp   (kN)      
  31   YawBrFzp   (kN)      
  32   YawBrMxp   (kN-m)    
  33   YawBrMyp   (kN-m)    
  34   YawBrMzp   (kN-m)    
