
This summary file was generated by TurbSim (v2.00.07a-bjj, 14-Jun-2016) on 10-Jul-2019 at 14:42:19.


Runtime Options:

1764051066  Random seed #1
    RANLUX  Type of random number generator
         F  Output binary HH turbulence parameters?
         F  Output formatted turbulence parameters?
         F  Output AeroDyn HH files?
         T  Output AeroDyn FF files?
         F  Output BLADED FF files?
         F  Output tower data?
         F  Output formatted FF files?
         F  Output coherent turbulence time step file?
         T  Clockwise rotation when looking downwind?
 0 -  NONE  IEC turbulence models scaled to exact specified standard deviation


Turbine/Model Specifications:

        21  Vertical grid-point matrix dimension
        21  Horizontal grid-point matrix dimension
     0.050  Time step [seconds]
   630.000  Analysis time [seconds]
   630.000  Usable output time [seconds]
   140.000  Hub height [m]
   248.000  Grid height [m]
   248.000  Grid width [m]
     0.000  Vertical flow angle [degrees]
     0.000  Horizontal flow angle [degrees]


Meteorological Boundary Conditions:

    IECKAI  IEC Kaimal spectral model
         1  IEC standard: IEC 61400-1 Ed. 3: 2005
         A  IEC turbulence characteristic
       NTM  IEC Normal Turbulence Model
       N/A  IEC Extreme Turbulence Model (ETM) "c" parameter [m/s]
       PL   Wind profile type
   140.000  Reference height [m]
     8.375  Reference wind speed [m/s]
       N/A  Jet height [m]
     0.200  Power law exponent
     0.030  Surface roughness length [m]


Non-IEC Meteorological Boundary Conditions:

       N/A  Site latitude [degrees]
       N/A  Gradient Richardson number
       N/A  Friction or shear velocity [m/s]
       N/A  Mixing layer depth [m]
       N/A  Mean hub u'w' Reynolds stress
       N/A  Mean hub u'v' Reynolds stress
       N/A  Mean hub v'w' Reynolds stress


Spatial Coherence Models:

   GENERAL  u-component coherence model
   GENERAL  v-component coherence model
   GENERAL  w-component coherence model
(   13.750, 0.400E-01)  u-component coherence parameters
(    9.850, 0.150E-02)  v-component coherence parameters
(    9.500, 0.300E-02)  w-component coherence parameters
     0.500  Coherence exponent


You have requested that the following file(s) be generated:

   C:\wisdem\RotorSE\src\rotorse\temp\RotorSE_FAST_BAR_005a\RotorSE_FAST_BAR_005a_turb_U8.374815_Seed1764051066.0.bts (AeroDyn/TurbSim full-field wind file)


Turbulence Simulation Scaling Parameter Summary:

   Turbulence model used                            =  IEC Kaimal
   Turbulence characteristic                        =  A
   IEC turbulence type                              =  Normal Turbulence Model
   IEC standard                                     =  IEC 61400-1 Ed. 3: 2005
   Mean wind speed at hub height                    =    8.375 m/s
   Expected value of turbulence intensity at 15 m/s =   16.000%
   Characteristic value of standard deviation       =    1.901 m/s
   Turbulence scale                                 =   42.000 m
   u-component integral scale                       =  340.200 m
   Coherency scale                                  =  340.200 m
   Characteristic value of hub turbulence intensity =   22.699%
   Gradient Richardson number                       =    0.000

   Wind profile type                                =  Power law
   Power law exponent                               =    0.200
   Mean shear across rotor disk                     =    0.016 (m/s)/m
   Assumed rotor diameter                           =  248.000 m
   Surface roughness length                         =    0.030 m

   Nyquist frequency of turbulent wind field        =   10.000 Hz

   Number of time steps in the FFT                  =    12600
   Number of time steps output                      =    12600
   Number of points simulated                       =      441


Mean Flow Angles:

   Vertical   =   0.0 degrees
   Horizontal =   0.0 degrees

Mean Wind Speed Profile:

   Height    Wind Speed   Horizontal Angle  Vertical Angle  U-comp (X)   V-comp (Y)   W-comp (Z)
     (m)        (m/s)         (degrees)       (degrees)       (m/s)        (m/s)        (m/s)   
   ------    ----------   ----------------  --------------  ----------   ----------   ----------
    264.0        9.51            0.00            0.00          9.51         0.00         0.00
    251.6        9.42            0.00            0.00          9.42         0.00         0.00
    239.2        9.32            0.00            0.00          9.32         0.00         0.00
    226.8        9.22            0.00            0.00          9.22         0.00         0.00
    214.4        9.12            0.00            0.00          9.12         0.00         0.00
    202.0        9.01            0.00            0.00          9.01         0.00         0.00
    189.6        8.90            0.00            0.00          8.90         0.00         0.00
    177.2        8.78            0.00            0.00          8.78         0.00         0.00
    164.8        8.65            0.00            0.00          8.65         0.00         0.00
    152.4        8.52            0.00            0.00          8.52         0.00         0.00
    140.0        8.37            0.00            0.00          8.37         0.00         0.00
    127.6        8.22            0.00            0.00          8.22         0.00         0.00
    115.2        8.05            0.00            0.00          8.05         0.00         0.00
    102.8        7.87            0.00            0.00          7.87         0.00         0.00
     90.4        7.67            0.00            0.00          7.67         0.00         0.00
     78.0        7.45            0.00            0.00          7.45         0.00         0.00
     65.6        7.20            0.00            0.00          7.20         0.00         0.00
     53.2        6.90            0.00            0.00          6.90         0.00         0.00
     40.8        6.54            0.00            0.00          6.54         0.00         0.00
     28.4        6.09            0.00            0.00          6.09         0.00         0.00
     16.0        5.43            0.00            0.00          5.43         0.00         0.00


Harvested Random Seeds after Generation of the Random Numbers:

     77445013 K 1
            0 K 2


Hub-Height Simulated Turbulence Statistical Summary:

   Type of Wind        Min (m/s)   Mean (m/s)    Max (m/s)  Sigma (m/s)       TI (%)
   ----------------    ---------   ----------    ---------  -----------       ------
   Longitudinal (u)         3.10         8.37        13.83        1.842       22.000
   Lateral (v)             -5.00         0.00         4.32        1.402       16.741
   Vertical (w)            -3.50        -0.00         3.66        0.902       10.772
   U component              3.10         8.37        13.83        1.842       22.000
   V component             -5.00         0.00         4.32        1.402       16.741
   W component             -3.50        -0.00         3.66        0.902       10.772
   Horizontal (U&V)         3.11         8.49        13.96        1.830       21.542
   Total                    3.15         8.54        13.96        1.823       21.341

                       Min Reynolds     Mean Reynolds    Max Reynolds    Correlation
   Product             Stress (m/s)^2   Stress (m/s)^2   Stress (m/s)^2  Coefficient
   ----------------    --------------   --------------   --------------  -----------
   u'w'                    -13.195             0.076             8.169         0.046
   u'v'                    -16.142            -0.457            12.125        -0.177
   v'w'                     -8.543            -0.011             6.852        -0.009


   Friction Velocity (Ustar)  =      0.275 m/s
   Maximum Instantaneous TKE  =     17.660 (m/s)^2
   Maximum Instantaneous CTKE =      8.239 (m/s)^2


Grid Point Variance Summary:

   Y-coord -124.00 -111.60  -99.20  -86.80  -74.40  -62.00  -49.60  -37.20  -24.80  -12.40    0.00   12.40   24.80   37.20   49.60   62.00   74.40   86.80   99.20  111.60  124.00

   Height   Standard deviation at grid points for the u component:
   264.00    1.738   1.640   1.740   1.912   1.903   1.833   1.827   1.954   2.090   1.789   1.575   1.614   1.725   1.796   1.861   1.670   1.717   1.761   1.750   1.774   1.960
   251.60    1.746   1.768   1.764   1.604   1.795   1.778   1.870   1.854   1.920   1.987   1.822   1.841   1.918   1.885   1.849   1.819   1.759   1.747   1.646   1.784   1.741
   239.20    1.713   1.790   1.812   1.592   1.855   1.745   1.711   1.723   1.862   1.737   1.748   1.826   1.808   1.737   1.759   1.632   1.742   1.729   1.801   1.686   1.763
   226.80    1.832   1.732   1.861   1.718   1.890   1.666   1.861   1.814   1.836   1.765   1.681   1.639   1.787   1.731   1.683   1.834   1.790   1.751   1.748   1.636   1.852
   214.40    1.801   1.765   1.783   1.784   1.892   1.742   1.815   1.816   1.776   1.845   1.734   1.665   1.709   1.726   1.785   1.759   1.856   1.839   1.779   1.662   1.768
   202.00    1.820   1.797   1.677   1.712   1.716   1.832   1.725   1.801   1.935   1.871   1.647   1.867   1.648   1.733   1.725   1.714   1.816   1.683   1.772   1.860   1.796
   189.60    1.744   1.817   1.706   1.643   1.627   1.642   1.729   1.783   1.833   1.739   1.723   1.878   1.763   1.894   1.675   1.921   1.745   1.780   1.818   1.729   1.737
   177.20    1.744   1.798   1.804   1.786   1.795   1.758   1.886   1.636   1.729   1.835   1.795   1.821   1.746   1.822   1.819   1.678   1.775   1.739   1.812   1.769   1.740
   164.80    1.752   1.809   1.790   1.773   1.728   1.842   1.892   1.805   1.859   1.761   1.924   1.714   1.733   1.864   1.683   1.787   1.897   1.712   1.771   1.686   1.780
   152.40    1.827   1.796   1.751   1.738   1.744   1.820   1.912   1.725   1.862   1.809   1.825   1.767   1.747   1.805   1.742   1.804   1.800   1.866   1.755   1.836   1.861
   140.00    1.792   1.787   1.745   1.734   1.851   1.758   1.891   1.748   1.770   1.846   1.842   1.720   1.774   1.767   1.760   1.761   1.834   1.717   1.706   1.793   1.865
   127.60    1.790   1.687   1.810   1.758   1.804   1.782   1.742   1.774   1.829   1.639   1.694   1.847   1.810   1.764   1.779   1.707   1.791   1.833   1.724   1.733   1.835
   115.20    1.780   1.787   1.723   1.770   1.776   1.789   1.720   1.758   1.809   1.760   1.743   1.779   1.807   1.806   1.774   1.708   1.841   1.799   1.862   1.798   1.701
   102.80    1.764   1.778   1.816   1.764   1.845   1.775   1.803   1.701   1.790   1.719   1.786   1.824   1.778   1.768   1.749   1.810   1.837   1.790   1.783   1.763   1.740
    90.40    1.810   1.772   1.793   1.745   1.791   1.783   1.737   1.768   1.825   1.743   1.779   1.735   1.748   1.807   1.782   1.830   1.731   1.731   1.841   1.813   1.803
    78.00    1.784   1.809   1.763   1.753   1.791   1.771   1.712   1.763   1.817   1.776   1.754   1.788   1.751   1.769   1.782   1.812   1.834   1.808   1.751   1.788   1.759
    65.60    1.793   1.733   1.760   1.759   1.775   1.785   1.758   1.797   1.782   1.836   1.773   1.757   1.768   1.792   1.777   1.791   1.774   1.809   1.810   1.749   1.802
    53.20    1.786   1.810   1.815   1.793   1.772   1.786   1.766   1.776   1.777   1.783   1.781   1.782   1.763   1.770   1.760   1.777   1.798   1.780   1.798   1.764   1.768
    40.80    1.777   1.789   1.795   1.788   1.781   1.775   1.786   1.795   1.771   1.770   1.801   1.785   1.776   1.775   1.771   1.794   1.768   1.790   1.794   1.783   1.791
    28.40    1.782   1.782   1.777   1.785   1.785   1.784   1.790   1.775   1.788   1.783   1.776   1.780   1.779   1.779   1.779   1.785   1.790   1.778   1.784   1.781   1.786
    16.00    1.782   1.783   1.783   1.782   1.784   1.781   1.782   1.782   1.783   1.782   1.783   1.783   1.783   1.782   1.784   1.781   1.782   1.783   1.782   1.783   1.784

   Height   Standard deviation at grid points for the v component:
   264.00    1.409   1.445   1.437   1.541   1.524   1.462   1.556   1.527   1.533   1.622   1.687   1.691   1.657   1.627   1.605   1.562   1.527   1.455   1.450   1.519   1.504
   251.60    1.458   1.514   1.554   1.612   1.600   1.574   1.594   1.559   1.484   1.571   1.632   1.640   1.580   1.594   1.552   1.525   1.530   1.513   1.483   1.519   1.479
   239.20    1.470   1.516   1.597   1.634   1.592   1.585   1.604   1.548   1.495   1.572   1.557   1.583   1.524   1.541   1.526   1.479   1.506   1.477   1.425   1.433   1.377
   226.80    1.455   1.594   1.662   1.742   1.677   1.708   1.630   1.610   1.577   1.542   1.471   1.456   1.487   1.472   1.425   1.415   1.458   1.439   1.440   1.464   1.408
   214.40    1.611   1.675   1.733   1.702   1.794   1.747   1.670   1.626   1.610   1.555   1.452   1.413   1.414   1.443   1.399   1.353   1.399   1.410   1.394   1.460   1.435
   202.00    1.625   1.701   1.729   1.792   1.873   1.754   1.676   1.654   1.619   1.571   1.517   1.464   1.404   1.404   1.364   1.350   1.349   1.389   1.397   1.461   1.450
   189.60    1.577   1.676   1.724   1.777   1.787   1.673   1.650   1.576   1.556   1.506   1.525   1.446   1.332   1.363   1.422   1.378   1.337   1.377   1.433   1.499   1.489
   177.20    1.532   1.617   1.630   1.695   1.699   1.646   1.590   1.502   1.469   1.477   1.467   1.421   1.403   1.402   1.346   1.346   1.336   1.395   1.497   1.563   1.586
   164.80    1.505   1.532   1.492   1.476   1.562   1.597   1.544   1.464   1.402   1.443   1.456   1.464   1.458   1.417   1.355   1.365   1.323   1.402   1.526   1.628   1.577
   152.40    1.415   1.456   1.458   1.460   1.481   1.569   1.521   1.449   1.415   1.462   1.507   1.544   1.485   1.454   1.347   1.333   1.354   1.412   1.474   1.543   1.594
   140.00    1.365   1.339   1.366   1.344   1.400   1.416   1.408   1.447   1.459   1.414   1.402   1.518   1.492   1.466   1.524   1.422   1.318   1.337   1.437   1.520   1.545
   127.60    1.344   1.288   1.280   1.316   1.378   1.390   1.359   1.300   1.363   1.416   1.447   1.467   1.462   1.467   1.539   1.480   1.351   1.343   1.418   1.551   1.511
   115.20    1.277   1.267   1.250   1.318   1.423   1.357   1.377   1.344   1.342   1.399   1.409   1.415   1.368   1.341   1.409   1.457   1.365   1.346   1.390   1.477   1.495
   102.80    1.253   1.225   1.271   1.371   1.505   1.483   1.420   1.322   1.311   1.325   1.360   1.309   1.287   1.251   1.291   1.325   1.317   1.345   1.331   1.440   1.526
    90.40    1.445   1.356   1.455   1.507   1.581   1.526   1.409   1.351   1.333   1.329   1.368   1.364   1.275   1.194   1.232   1.282   1.344   1.361   1.374   1.412   1.492
    78.00    1.437   1.470   1.564   1.673   1.632   1.549   1.476   1.419   1.363   1.454   1.432   1.414   1.333   1.222   1.255   1.348   1.301   1.319   1.397   1.420   1.467
    65.60    1.445   1.578   1.580   1.540   1.577   1.499   1.474   1.467   1.471   1.469   1.563   1.522   1.423   1.378   1.308   1.361   1.329   1.284   1.406   1.438   1.425
    53.20    1.474   1.596   1.589   1.478   1.568   1.541   1.339   1.429   1.351   1.471   1.548   1.539   1.514   1.519   1.576   1.432   1.356   1.404   1.403   1.465   1.467
    40.80    1.560   1.539   1.562   1.579   1.516   1.459   1.342   1.467   1.367   1.523   1.578   1.595   1.502   1.633   1.599   1.434   1.371   1.440   1.432   1.387   1.420
    28.40    1.537   1.486   1.437   1.365   1.391   1.477   1.502   1.423   1.431   1.571   1.580   1.571   1.514   1.468   1.577   1.399   1.420   1.441   1.422   1.408   1.411
    16.00    1.480   1.460   1.393   1.384   1.399   1.457   1.587   1.509   1.315   1.481   1.497   1.584   1.602   1.522   1.527   1.573   1.464   1.414   1.551   1.410   1.412

   Height   Standard deviation at grid points for the w component:
   264.00    0.895   0.884   0.915   0.933   0.949   0.955   0.965   0.949   0.941   0.944   0.943   0.933   0.903   0.913   0.938   0.934   0.933   0.902   0.912   0.945   0.968
   251.60    0.903   0.896   0.909   0.909   0.932   0.961   0.960   0.946   0.929   0.946   0.936   0.944   0.915   0.918   0.919   0.940   0.899   0.872   0.907   0.958   0.960
   239.20    0.898   0.911   0.951   0.902   0.899   0.926   0.955   0.978   0.962   0.970   0.963   0.923   0.905   0.896   0.902   0.922   0.901   0.890   0.892   0.920   0.940
   226.80    0.904   0.906   0.939   0.913   0.886   0.927   0.952   0.999   0.994   0.964   0.942   0.948   0.905   0.896   0.899   0.923   0.910   0.901   0.893   0.885   0.890
   214.40    0.920   0.904   0.898   0.881   0.864   0.889   0.938   0.984   0.960   0.938   0.930   0.960   0.938   0.945   0.950   0.927   0.942   0.894   0.867   0.863   0.894
   202.00    0.913   0.904   0.891   0.922   0.917   0.931   0.896   0.921   0.935   0.904   0.905   0.951   0.943   0.941   0.955   0.943   0.930   0.896   0.898   0.911   0.910
   189.60    0.899   0.910   0.931   0.963   0.939   0.939   0.923   0.938   0.925   0.887   0.912   0.945   0.968   0.949   0.952   0.912   0.912   0.896   0.908   0.957   0.965
   177.20    0.924   0.903   0.933   0.983   0.936   0.952   0.955   0.926   0.874   0.856   0.872   0.931   0.972   0.939   0.933   0.896   0.875   0.887   0.933   0.952   0.977
   164.80    0.939   0.934   0.926   0.972   0.968   0.939   0.926   0.896   0.837   0.828   0.843   0.918   0.916   0.923   0.951   0.900   0.859   0.858   0.894   0.921   0.918
   152.40    0.955   0.947   0.952   0.969   0.958   0.946   0.938   0.890   0.833   0.837   0.859   0.916   0.926   0.939   0.918   0.904   0.861   0.838   0.871   0.863   0.878
   140.00    0.911   0.915   0.945   0.952   0.974   0.934   0.912   0.879   0.870   0.860   0.902   0.928   0.957   0.935   0.930   0.934   0.863   0.854   0.834   0.868   0.940
   127.60    0.900   0.906   0.903   0.896   0.958   0.930   0.904   0.922   0.923   0.957   0.949   0.977   0.974   0.934   0.940   0.946   0.893   0.857   0.887   0.888   0.923
   115.20    0.928   0.930   0.910   0.885   0.927   0.913   0.941   0.931   0.956   0.931   0.933   0.932   0.916   0.909   0.944   0.937   0.867   0.895   0.912   0.889   0.956
   102.80    0.943   0.932   0.926   0.937   0.934   0.960   0.971   0.962   0.937   0.890   0.850   0.899   0.917   0.886   0.902   0.933   0.894   0.897   0.888   0.958   0.935
    90.40    0.930   0.947   0.918   0.952   0.925   0.956   0.932   0.929   0.916   0.872   0.854   0.874   0.910   0.891   0.859   0.909   0.899   0.914   0.923   0.957   0.934
    78.00    0.897   0.911   0.919   0.972   0.972   0.917   0.914   0.889   0.896   0.914   0.885   0.954   0.952   0.892   0.861   0.875   0.897   0.896   0.899   0.912   0.934
    65.60    0.931   0.936   0.915   0.967   0.980   0.950   0.856   0.875   0.903   0.937   0.944   0.954   0.963   0.900   0.875   0.866   0.897   0.910   0.926   0.955   0.930
    53.20    0.949   0.951   0.923   0.943   0.924   0.949   0.872   0.879   0.935   0.939   0.927   0.938   0.968   0.901   0.908   0.911   0.914   0.945   0.966   0.961   0.964
    40.80    0.892   0.897   0.927   0.920   0.905   0.900   0.909   0.893   0.929   0.877   0.894   0.901   0.907   0.897   0.895   0.943   0.943   0.962   0.965   0.927   0.928
    28.40    0.924   0.893   0.929   0.942   0.904   0.915   0.904   0.890   0.960   0.926   0.921   0.902   0.888   0.940   0.904   0.955   0.976   0.984   0.939   0.897   0.915
    16.00    0.931   0.899   0.901   0.920   0.926   0.908   0.934   0.937   0.913   0.939   0.964   0.951   0.899   0.892   0.914   0.948   0.933   0.968   0.938   0.953   0.947

   Mean standard deviation across all grid points:
      u component:    1.779 m/s
      v component:    1.473 m/s
      w component:    0.921 m/s


U-component (X) statistics from the interpolated hub point:

   Mean =   8.3748 m/s
   TI   =  22.0001 %


Processing complete.  44.062 CPU seconds used.
