
This summary information was generated by AeroDyn on 17-Jul-2019 at 11:21:40.

======  General Options  ============================================================================
            1  WakeMod        - Type of wake/induction model: Blade-Element/Momentum Theory
            2  AFAeroMod      - Type of blade airfoil aerodynamics model: Beddoes-Leishman unsteady model
            0  TwrPotent      - Type tower influence on wind based on potential flow around the tower: none
            F  TwrShadow      - Calculate tower influence on wind based on downstream tower shadow? No
            F  TwrAero        - Calculate tower aerodynamic loads? No
======  Blade-Element/Momentum Theory Options  ======================================================
            1  SkewMod        - Type of skewed-wake correction model: uncoupled
            T  TipLoss        - Use the Prandtl tip-loss model? Yes
            T  HubLoss        - Use the Prandtl hub-loss model? Yes
            T  TanInd         - Include tangential induction in BEMT calculations? Yes
            T  AIDrag         - Include the drag term in the axial-induction calculation? Yes
            T  AIDrag         - Include the drag term in the tangential-induction calculation? Yes
   1.0000E-05  IndToler       - Convergence tolerance for BEM induction factors (radians)
======  Beddoes-Leishman Unsteady Airfoil Aerodynamics Options  =====================================
            3  UAMod          - Unsteady Aero Model: Minemma/Pierce variant (changes in Cc and Cm)
            T  FLookup        - Use a lookup for f'? Yes
======  Outputs  ====================================================================================
            9  NBlOuts        - Number of blade nodes selected for output
           50  NumBlNds       - Number of blade nodes in the analysis
               Blade nodes selected for output:  Output node  Analysis node
                                                 -----------  -------------
                                                           1              1
                                                           2              6
                                                           3             11
                                                           4             22
                                                           5             32
                                                           6             39
                                                           7             43
                                                           8             47
                                                           9             50
            0  NTwOuts        - Number of tower nodes selected for output
               Requested Output Channels:
               Col   Parameter  Units
               ----  ---------  -----
                  0  Time       (s)       
                  1  RtAeroCp   (-)       
                  2  RtAeroFxh  (N)       
                  3  RtAeroFyh  (N)       
                  4  RtAeroFzh  (N)       
                  5  RtAeroMxh  (N-m)     
                  6  RtAeroMyh  (N-m)     
                  7  RtAeroMzh  (N-m)     
