
This summary file was generated by TurbSim (v2.00.07a-bjj, 14-Jun-2016) on 17-Jul-2019 at 13:35:43.


Runtime Options:

 310414237  Random seed #1
    RANLUX  Type of random number generator
         F  Output binary HH turbulence parameters?
         F  Output formatted turbulence parameters?
         F  Output AeroDyn HH files?
         T  Output AeroDyn FF files?
         F  Output BLADED FF files?
         F  Output tower data?
         F  Output formatted FF files?
         F  Output coherent turbulence time step file?
         T  Clockwise rotation when looking downwind?
 0 -  NONE  IEC turbulence models scaled to exact specified standard deviation


Turbine/Model Specifications:

        21  Vertical grid-point matrix dimension
        21  Horizontal grid-point matrix dimension
     0.050  Time step [seconds]
   630.000  Analysis time [seconds]
   630.000  Usable output time [seconds]
   140.000  Hub height [m]
   248.000  Grid height [m]
   248.000  Grid width [m]
     0.000  Vertical flow angle [degrees]
     0.000  Horizontal flow angle [degrees]


Meteorological Boundary Conditions:

    IECKAI  IEC Kaimal spectral model
         1  IEC standard: IEC 61400-1 Ed. 3: 2005
         A  IEC turbulence characteristic
       NTM  IEC Normal Turbulence Model
       N/A  IEC Extreme Turbulence Model (ETM) "c" parameter [m/s]
       PL   Wind profile type
   140.000  Reference height [m]
     8.375  Reference wind speed [m/s]
       N/A  Jet height [m]
     0.200  Power law exponent
     0.030  Surface roughness length [m]


Non-IEC Meteorological Boundary Conditions:

       N/A  Site latitude [degrees]
       N/A  Gradient Richardson number
       N/A  Friction or shear velocity [m/s]
       N/A  Mixing layer depth [m]
       N/A  Mean hub u'w' Reynolds stress
       N/A  Mean hub u'v' Reynolds stress
       N/A  Mean hub v'w' Reynolds stress


Spatial Coherence Models:

   GENERAL  u-component coherence model
   GENERAL  v-component coherence model
   GENERAL  w-component coherence model
(   13.750, 0.400E-01)  u-component coherence parameters
(    9.850, 0.150E-02)  v-component coherence parameters
(    9.500, 0.300E-02)  w-component coherence parameters
     0.500  Coherence exponent


You have requested that the following file(s) be generated:

   C:\wisdem\RotorSE\src\rotorse\temp\RotorSE_FAST_BAR_005a\RotorSE_FAST_BAR_005a_turb_U8.374815_Seed310414237.0.bts (AeroDyn/TurbSim full-field wind file)


Turbulence Simulation Scaling Parameter Summary:

   Turbulence model used                            =  IEC Kaimal
   Turbulence characteristic                        =  A
   IEC turbulence type                              =  Normal Turbulence Model
   IEC standard                                     =  IEC 61400-1 Ed. 3: 2005
   Mean wind speed at hub height                    =    8.375 m/s
   Expected value of turbulence intensity at 15 m/s =   16.000%
   Characteristic value of standard deviation       =    1.901 m/s
   Turbulence scale                                 =   42.000 m
   u-component integral scale                       =  340.200 m
   Coherency scale                                  =  340.200 m
   Characteristic value of hub turbulence intensity =   22.699%
   Gradient Richardson number                       =    0.000

   Wind profile type                                =  Power law
   Power law exponent                               =    0.200
   Mean shear across rotor disk                     =    0.016 (m/s)/m
   Assumed rotor diameter                           =  248.000 m
   Surface roughness length                         =    0.030 m

   Nyquist frequency of turbulent wind field        =   10.000 Hz

   Number of time steps in the FFT                  =    12600
   Number of time steps output                      =    12600
   Number of points simulated                       =      441


Mean Flow Angles:

   Vertical   =   0.0 degrees
   Horizontal =   0.0 degrees

Mean Wind Speed Profile:

   Height    Wind Speed   Horizontal Angle  Vertical Angle  U-comp (X)   V-comp (Y)   W-comp (Z)
     (m)        (m/s)         (degrees)       (degrees)       (m/s)        (m/s)        (m/s)   
   ------    ----------   ----------------  --------------  ----------   ----------   ----------
    264.0        9.51            0.00            0.00          9.51         0.00         0.00
    251.6        9.42            0.00            0.00          9.42         0.00         0.00
    239.2        9.32            0.00            0.00          9.32         0.00         0.00
    226.8        9.22            0.00            0.00          9.22         0.00         0.00
    214.4        9.12            0.00            0.00          9.12         0.00         0.00
    202.0        9.01            0.00            0.00          9.01         0.00         0.00
    189.6        8.90            0.00            0.00          8.90         0.00         0.00
    177.2        8.78            0.00            0.00          8.78         0.00         0.00
    164.8        8.65            0.00            0.00          8.65         0.00         0.00
    152.4        8.52            0.00            0.00          8.52         0.00         0.00
    140.0        8.37            0.00            0.00          8.37         0.00         0.00
    127.6        8.22            0.00            0.00          8.22         0.00         0.00
    115.2        8.05            0.00            0.00          8.05         0.00         0.00
    102.8        7.87            0.00            0.00          7.87         0.00         0.00
     90.4        7.67            0.00            0.00          7.67         0.00         0.00
     78.0        7.45            0.00            0.00          7.45         0.00         0.00
     65.6        7.20            0.00            0.00          7.20         0.00         0.00
     53.2        6.90            0.00            0.00          6.90         0.00         0.00
     40.8        6.54            0.00            0.00          6.54         0.00         0.00
     28.4        6.09            0.00            0.00          6.09         0.00         0.00
     16.0        5.43            0.00            0.00          5.43         0.00         0.00


Harvested Random Seeds after Generation of the Random Numbers:

     77445013 K 1
            0 K 2


Hub-Height Simulated Turbulence Statistical Summary:

   Type of Wind        Min (m/s)   Mean (m/s)    Max (m/s)  Sigma (m/s)       TI (%)
   ----------------    ---------   ----------    ---------  -----------       ------
   Longitudinal (u)         2.83         8.37        15.24        1.895       22.628
   Lateral (v)             -4.39         0.00         5.41        1.573       18.783
   Vertical (w)            -3.11         0.00         3.07        0.982       11.731
   U component              2.83         8.37        15.24        1.895       22.628
   V component             -4.39         0.00         5.41        1.573       18.783
   W component             -3.11         0.00         3.07        0.982       11.731
   Horizontal (U&V)         3.12         8.53        15.24        1.852       21.710
   Total                    3.20         8.59        15.24        1.837       21.388

                       Min Reynolds     Mean Reynolds    Max Reynolds    Correlation
   Product             Stress (m/s)^2   Stress (m/s)^2   Stress (m/s)^2  Coefficient
   ----------------    --------------   --------------   --------------  -----------
   u'w'                    -15.121            -0.118             9.536        -0.063
   u'v'                    -14.734            -1.203            12.736        -0.403
   v'w'                     -9.741             0.141             8.917         0.091


   Friction Velocity (Ustar)  =      0.343 m/s
   Maximum Instantaneous TKE  =     23.563 (m/s)^2
   Maximum Instantaneous CTKE =      8.942 (m/s)^2


Grid Point Variance Summary:

   Y-coord -124.00 -111.60  -99.20  -86.80  -74.40  -62.00  -49.60  -37.20  -24.80  -12.40    0.00   12.40   24.80   37.20   49.60   62.00   74.40   86.80   99.20  111.60  124.00

   Height   Standard deviation at grid points for the u component:
   264.00    1.832   1.838   1.812   1.868   1.878   1.846   1.843   1.680   1.794   1.767   1.664   1.610   1.822   1.729   1.808   1.823   1.766   1.757   1.796   1.920   1.728
   251.60    1.858   1.849   1.820   1.711   1.771   1.655   1.736   1.741   1.744   1.906   1.809   1.699   1.701   1.730   1.790   1.824   1.728   1.684   1.613   1.903   1.651
   239.20    1.765   1.875   1.775   1.765   1.778   1.767   1.761   1.827   1.826   1.984   1.872   1.808   1.591   1.710   1.882   1.651   1.900   1.785   1.775   1.643   1.830
   226.80    1.869   1.926   1.666   1.738   1.820   1.805   1.816   1.775   1.782   1.710   1.860   1.648   1.835   1.719   1.735   1.769   1.744   1.775   1.883   1.712   1.813
   214.40    1.810   1.882   1.823   1.800   1.911   1.864   1.844   1.793   1.931   1.825   1.711   1.832   1.746   1.857   1.786   1.787   1.818   1.835   1.775   1.831   1.843
   202.00    1.713   1.809   1.888   1.783   1.895   1.924   1.723   1.843   1.716   1.724   1.746   1.742   1.622   1.684   1.652   1.764   1.708   1.779   1.664   1.721   1.837
   189.60    1.735   1.750   1.683   1.759   1.612   1.719   1.795   1.971   1.794   1.893   1.727   1.827   1.790   1.734   1.752   1.830   1.736   1.818   1.660   1.705   1.725
   177.20    1.785   1.793   1.797   1.789   1.746   1.795   1.755   1.830   1.666   1.708   1.728   1.827   1.762   1.908   1.835   1.816   1.805   1.824   1.711   1.805   1.742
   164.80    1.769   1.830   1.748   1.679   1.804   1.802   1.687   1.812   1.837   1.717   1.833   1.753   1.855   1.836   1.707   1.846   1.716   1.703   1.785   1.783   1.883
   152.40    1.718   1.668   1.674   1.711   1.855   1.658   1.768   1.699   1.791   1.868   1.879   1.769   1.784   1.772   1.704   1.816   1.687   1.782   1.766   1.701   1.819
   140.00    1.791   1.747   1.712   1.744   1.723   1.814   1.777   1.725   1.720   1.749   1.895   1.886   1.751   1.693   1.818   1.745   1.771   1.752   1.873   1.874   1.834
   127.60    1.729   1.784   1.756   1.755   1.793   1.832   1.798   1.762   1.830   1.841   1.783   1.780   1.811   1.834   1.705   1.841   1.771   1.712   1.836   1.797   1.734
   115.20    1.845   1.781   1.741   1.814   1.734   1.764   1.772   1.747   1.797   1.845   1.733   1.840   1.818   1.828   1.819   1.750   1.828   1.833   1.746   1.828   1.798
   102.80    1.750   1.785   1.731   1.754   1.781   1.774   1.815   1.848   1.788   1.716   1.788   1.785   1.810   1.805   1.776   1.791   1.765   1.760   1.748   1.807   1.752
    90.40    1.810   1.804   1.750   1.771   1.744   1.779   1.780   1.814   1.775   1.804   1.753   1.779   1.786   1.801   1.801   1.721   1.774   1.738   1.769   1.792   1.778
    78.00    1.749   1.821   1.750   1.774   1.818   1.804   1.807   1.778   1.858   1.770   1.750   1.757   1.768   1.752   1.807   1.765   1.759   1.797   1.809   1.811   1.808
    65.60    1.777   1.761   1.784   1.803   1.787   1.743   1.768   1.776   1.799   1.780   1.808   1.815   1.793   1.776   1.802   1.810   1.834   1.759   1.750   1.765   1.750
    53.20    1.780   1.776   1.793   1.796   1.801   1.770   1.783   1.800   1.801   1.777   1.779   1.755   1.788   1.797   1.766   1.768   1.792   1.796   1.801   1.784   1.814
    40.80    1.771   1.790   1.799   1.792   1.788   1.771   1.787   1.789   1.767   1.785   1.781   1.769   1.796   1.765   1.802   1.783   1.768   1.778   1.785   1.776   1.788
    28.40    1.784   1.781   1.779   1.779   1.789   1.780   1.777   1.787   1.786   1.782   1.788   1.780   1.778   1.785   1.786   1.775   1.790   1.786   1.784   1.773   1.779
    16.00    1.782   1.783   1.782   1.784   1.782   1.783   1.781   1.782   1.784   1.782   1.782   1.782   1.782   1.781   1.782   1.783   1.782   1.783   1.783   1.783   1.783

   Height   Standard deviation at grid points for the v component:
   264.00    1.408   1.471   1.504   1.469   1.411   1.470   1.487   1.578   1.635   1.713   1.793   1.777   1.725   1.684   1.654   1.611   1.504   1.533   1.481   1.388   1.384
   251.60    1.391   1.402   1.469   1.418   1.378   1.365   1.409   1.459   1.498   1.529   1.603   1.709   1.768   1.694   1.698   1.677   1.593   1.524   1.502   1.408   1.414
   239.20    1.363   1.386   1.453   1.439   1.377   1.349   1.323   1.429   1.432   1.487   1.549   1.583   1.678   1.723   1.696   1.732   1.714   1.600   1.510   1.458   1.430
   226.80    1.280   1.415   1.515   1.468   1.388   1.304   1.346   1.397   1.391   1.402   1.450   1.599   1.620   1.695   1.709   1.689   1.650   1.543   1.502   1.462   1.415
   214.40    1.294   1.370   1.452   1.428   1.380   1.395   1.422   1.411   1.405   1.378   1.439   1.537   1.553   1.613   1.628   1.603   1.612   1.579   1.543   1.476   1.471
   202.00    1.369   1.354   1.390   1.388   1.332   1.406   1.392   1.426   1.431   1.408   1.449   1.547   1.539   1.588   1.615   1.599   1.580   1.603   1.598   1.549   1.473
   189.60    1.277   1.277   1.311   1.359   1.418   1.477   1.469   1.502   1.515   1.503   1.555   1.531   1.536   1.558   1.555   1.561   1.645   1.632   1.624   1.515   1.525
   177.20    1.354   1.321   1.340   1.431   1.580   1.627   1.607   1.550   1.519   1.568   1.625   1.606   1.618   1.526   1.567   1.635   1.663   1.646   1.521   1.507   1.549
   164.80    1.481   1.439   1.466   1.494   1.643   1.688   1.740   1.664   1.610   1.573   1.613   1.634   1.587   1.539   1.554   1.573   1.597   1.591   1.526   1.502   1.535
   152.40    1.506   1.483   1.569   1.602   1.612   1.786   1.767   1.707   1.595   1.629   1.566   1.562   1.549   1.514   1.545   1.579   1.623   1.597   1.531   1.543   1.575
   140.00    1.428   1.483   1.604   1.683   1.707   1.684   1.751   1.658   1.621   1.571   1.573   1.568   1.563   1.596   1.648   1.625   1.636   1.548   1.502   1.511   1.499
   127.60    1.431   1.508   1.629   1.621   1.721   1.687   1.611   1.597   1.543   1.618   1.621   1.626   1.570   1.592   1.610   1.644   1.537   1.490   1.517   1.463   1.435
   115.20    1.377   1.523   1.565   1.634   1.650   1.659   1.585   1.538   1.542   1.654   1.614   1.546   1.520   1.494   1.476   1.573   1.555   1.504   1.498   1.498   1.499
   102.80    1.391   1.461   1.543   1.573   1.601   1.576   1.635   1.590   1.593   1.623   1.577   1.522   1.439   1.399   1.466   1.545   1.622   1.600   1.588   1.614   1.593
    90.40    1.390   1.445   1.491   1.510   1.572   1.680   1.658   1.668   1.593   1.518   1.545   1.522   1.512   1.456   1.388   1.506   1.607   1.682   1.664   1.518   1.566
    78.00    1.425   1.519   1.457   1.489   1.548   1.650   1.726   1.652   1.490   1.433   1.590   1.582   1.614   1.578   1.418   1.467   1.635   1.723   1.688   1.657   1.578
    65.60    1.443   1.459   1.464   1.460   1.536   1.589   1.708   1.659   1.491   1.509   1.510   1.609   1.684   1.647   1.551   1.577   1.703   1.742   1.717   1.635   1.513
    53.20    1.460   1.455   1.478   1.472   1.462   1.546   1.682   1.697   1.524   1.478   1.509   1.638   1.700   1.681   1.624   1.588   1.694   1.713   1.633   1.575   1.410
    40.80    1.519   1.487   1.472   1.375   1.384   1.495   1.516   1.466   1.522   1.592   1.622   1.696   1.726   1.641   1.637   1.591   1.571   1.617   1.601   1.562   1.453
    28.40    1.504   1.435   1.358   1.395   1.400   1.399   1.392   1.409   1.414   1.508   1.514   1.569   1.534   1.538   1.468   1.491   1.561   1.574   1.529   1.482   1.436
    16.00    1.480   1.524   1.383   1.461   1.353   1.389   1.353   1.523   1.616   1.632   1.639   1.593   1.458   1.424   1.405   1.326   1.445   1.477   1.523   1.451   1.440

   Height   Standard deviation at grid points for the w component:
   264.00    0.884   0.877   0.857   0.860   0.896   0.917   0.910   0.919   0.946   0.967   0.948   0.940   0.941   0.934   0.936   0.950   0.943   0.928   0.931   0.908   0.917
   251.60    0.894   0.881   0.863   0.840   0.898   0.916   0.906   0.923   0.905   0.935   0.897   0.930   0.930   0.919   0.965   0.961   0.952   0.923   0.898   0.884   0.925
   239.20    0.874   0.898   0.914   0.895   0.904   0.922   0.936   0.908   0.898   0.879   0.881   0.873   0.920   0.918   0.941   0.954   0.977   0.921   0.915   0.901   0.935
   226.80    0.879   0.882   0.928   0.922   0.927   0.935   0.972   0.957   0.925   0.893   0.877   0.894   0.899   0.926   0.943   0.956   0.962   0.946   0.944   0.958   0.952
   214.40    0.884   0.911   0.910   0.882   0.928   0.943   0.981   0.984   0.955   0.920   0.891   0.874   0.912   0.937   0.974   0.949   0.948   0.960   0.975   0.965   0.961
   202.00    0.878   0.902   0.932   0.892   0.949   0.942   0.962   0.978   0.959   0.929   0.903   0.870   0.900   0.934   0.963   0.975   0.966   0.952   0.936   0.959   0.981
   189.60    0.857   0.918   0.940   0.925   0.954   0.936   0.937   0.928   0.908   0.915   0.912   0.907   0.908   0.931   0.960   0.956   0.981   0.962   0.930   0.923   0.939
   177.20    0.837   0.873   0.908   0.881   0.886   0.924   0.930   0.917   0.916   0.935   0.936   0.960   0.931   0.922   0.944   0.963   0.945   0.922   0.933   0.896   0.947
   164.80    0.842   0.832   0.896   0.925   0.924   0.939   0.926   0.927   0.968   0.995   1.007   0.966   0.916   0.894   0.953   0.969   0.931   0.903   0.895   0.897   0.928
   152.40    0.876   0.875   0.895   1.000   0.967   0.957   0.954   0.979   0.969   0.994   0.992   0.946   0.911   0.903   0.898   0.928   0.903   0.895   0.882   0.907   0.933
   140.00    0.918   0.893   0.931   1.005   1.021   0.992   0.994   0.976   0.942   0.986   0.982   0.955   0.919   0.941   0.922   0.897   0.922   0.915   0.892   0.902   0.881
   127.60    0.957   0.925   0.965   1.045   1.016   0.988   0.974   0.988   0.961   0.949   0.952   0.989   0.957   0.962   0.946   0.884   0.904   0.935   0.926   0.926   0.895
   115.20    0.973   0.978   0.985   1.031   1.000   0.957   0.937   0.950   0.971   0.986   0.977   1.000   0.991   0.973   0.973   0.910   0.917   0.933   0.941   0.929   0.909
   102.80    0.902   0.915   0.959   0.979   0.993   0.990   0.946   0.927   0.915   0.959   0.949   0.978   0.963   0.967   0.966   0.876   0.878   0.940   0.940   0.963   0.912
    90.40    0.895   0.893   0.909   0.904   0.924   0.932   0.939   0.928   0.907   0.912   0.952   0.966   0.941   0.933   0.933   0.898   0.898   0.908   0.898   0.969   0.915
    78.00    0.908   0.920   0.898   0.903   0.919   0.931   0.901   0.896   0.891   0.891   0.933   0.982   0.951   0.963   0.946   0.918   0.937   0.911   0.932   0.964   0.948
    65.60    0.909   0.922   0.957   0.881   0.915   0.936   0.901   0.890   0.878   0.854   0.889   0.961   0.979   0.944   0.950   0.978   0.974   0.947   0.952   0.946   0.892
    53.20    0.892   0.909   0.944   0.911   0.907   0.950   0.939   0.895   0.877   0.912   0.904   0.953   0.983   0.972   0.973   0.899   0.923   0.932   0.964   0.948   0.880
    40.80    0.920   0.923   0.900   0.936   0.920   0.967   0.971   0.926   0.901   0.926   0.934   0.906   0.942   1.002   0.953   0.902   0.925   0.981   0.997   0.969   0.961
    28.40    0.914   0.910   0.935   0.910   0.926   0.949   0.965   0.944   0.964   0.944   0.899   0.868   0.893   0.938   0.952   0.908   0.942   0.999   1.041   0.954   0.939
    16.00    0.931   0.929   0.901   0.910   0.947   0.935   0.948   0.950   0.954   0.942   0.901   0.925   0.932   0.964   0.917   0.898   0.921   0.951   0.946   0.932   0.911

   Mean standard deviation across all grid points:
      u component:    1.781 m/s
      v component:    1.536 m/s
      w component:    0.932 m/s


U-component (X) statistics from the interpolated hub point:

   Mean =   8.3748 m/s
   TI   =  22.6281 %


Processing complete.  43.844 CPU seconds used.
