
This summary file was generated by TurbSim (v2.00.07a-bjj, 14-Jun-2016) on 17-Jul-2019 at 13:37:11.


Runtime Options:

1935526301  Random seed #1
    RANLUX  Type of random number generator
         F  Output binary HH turbulence parameters?
         F  Output formatted turbulence parameters?
         F  Output AeroDyn HH files?
         T  Output AeroDyn FF files?
         F  Output BLADED FF files?
         F  Output tower data?
         F  Output formatted FF files?
         F  Output coherent turbulence time step file?
         T  Clockwise rotation when looking downwind?
 0 -  NONE  IEC turbulence models scaled to exact specified standard deviation


Turbine/Model Specifications:

        21  Vertical grid-point matrix dimension
        21  Horizontal grid-point matrix dimension
     0.050  Time step [seconds]
   630.000  Analysis time [seconds]
   630.000  Usable output time [seconds]
   140.000  Hub height [m]
   248.000  Grid height [m]
   248.000  Grid width [m]
     0.000  Vertical flow angle [degrees]
     0.000  Horizontal flow angle [degrees]


Meteorological Boundary Conditions:

    IECKAI  IEC Kaimal spectral model
         1  IEC standard: IEC 61400-1 Ed. 3: 2005
         A  IEC turbulence characteristic
       NTM  IEC Normal Turbulence Model
       N/A  IEC Extreme Turbulence Model (ETM) "c" parameter [m/s]
       PL   Wind profile type
   140.000  Reference height [m]
     8.375  Reference wind speed [m/s]
       N/A  Jet height [m]
     0.200  Power law exponent
     0.030  Surface roughness length [m]


Non-IEC Meteorological Boundary Conditions:

       N/A  Site latitude [degrees]
       N/A  Gradient Richardson number
       N/A  Friction or shear velocity [m/s]
       N/A  Mixing layer depth [m]
       N/A  Mean hub u'w' Reynolds stress
       N/A  Mean hub u'v' Reynolds stress
       N/A  Mean hub v'w' Reynolds stress


Spatial Coherence Models:

   GENERAL  u-component coherence model
   GENERAL  v-component coherence model
   GENERAL  w-component coherence model
(   13.750, 0.400E-01)  u-component coherence parameters
(    9.850, 0.150E-02)  v-component coherence parameters
(    9.500, 0.300E-02)  w-component coherence parameters
     0.500  Coherence exponent


You have requested that the following file(s) be generated:

   C:\wisdem\RotorSE\src\rotorse\temp\RotorSE_FAST_BAR_005a\RotorSE_FAST_BAR_005a_turb_U8.374815_Seed1935526301.0.bts (AeroDyn/TurbSim full-field wind file)


Turbulence Simulation Scaling Parameter Summary:

   Turbulence model used                            =  IEC Kaimal
   Turbulence characteristic                        =  A
   IEC turbulence type                              =  Normal Turbulence Model
   IEC standard                                     =  IEC 61400-1 Ed. 3: 2005
   Mean wind speed at hub height                    =    8.375 m/s
   Expected value of turbulence intensity at 15 m/s =   16.000%
   Characteristic value of standard deviation       =    1.901 m/s
   Turbulence scale                                 =   42.000 m
   u-component integral scale                       =  340.200 m
   Coherency scale                                  =  340.200 m
   Characteristic value of hub turbulence intensity =   22.699%
   Gradient Richardson number                       =    0.000

   Wind profile type                                =  Power law
   Power law exponent                               =    0.200
   Mean shear across rotor disk                     =    0.016 (m/s)/m
   Assumed rotor diameter                           =  248.000 m
   Surface roughness length                         =    0.030 m

   Nyquist frequency of turbulent wind field        =   10.000 Hz

   Number of time steps in the FFT                  =    12600
   Number of time steps output                      =    12600
   Number of points simulated                       =      441


Mean Flow Angles:

   Vertical   =   0.0 degrees
   Horizontal =   0.0 degrees

Mean Wind Speed Profile:

   Height    Wind Speed   Horizontal Angle  Vertical Angle  U-comp (X)   V-comp (Y)   W-comp (Z)
     (m)        (m/s)         (degrees)       (degrees)       (m/s)        (m/s)        (m/s)   
   ------    ----------   ----------------  --------------  ----------   ----------   ----------
    264.0        9.51            0.00            0.00          9.51         0.00         0.00
    251.6        9.42            0.00            0.00          9.42         0.00         0.00
    239.2        9.32            0.00            0.00          9.32         0.00         0.00
    226.8        9.22            0.00            0.00          9.22         0.00         0.00
    214.4        9.12            0.00            0.00          9.12         0.00         0.00
    202.0        9.01            0.00            0.00          9.01         0.00         0.00
    189.6        8.90            0.00            0.00          8.90         0.00         0.00
    177.2        8.78            0.00            0.00          8.78         0.00         0.00
    164.8        8.65            0.00            0.00          8.65         0.00         0.00
    152.4        8.52            0.00            0.00          8.52         0.00         0.00
    140.0        8.37            0.00            0.00          8.37         0.00         0.00
    127.6        8.22            0.00            0.00          8.22         0.00         0.00
    115.2        8.05            0.00            0.00          8.05         0.00         0.00
    102.8        7.87            0.00            0.00          7.87         0.00         0.00
     90.4        7.67            0.00            0.00          7.67         0.00         0.00
     78.0        7.45            0.00            0.00          7.45         0.00         0.00
     65.6        7.20            0.00            0.00          7.20         0.00         0.00
     53.2        6.90            0.00            0.00          6.90         0.00         0.00
     40.8        6.54            0.00            0.00          6.54         0.00         0.00
     28.4        6.09            0.00            0.00          6.09         0.00         0.00
     16.0        5.43            0.00            0.00          5.43         0.00         0.00


Harvested Random Seeds after Generation of the Random Numbers:

     77445013 K 1
            0 K 2


Hub-Height Simulated Turbulence Statistical Summary:

   Type of Wind        Min (m/s)   Mean (m/s)    Max (m/s)  Sigma (m/s)       TI (%)
   ----------------    ---------   ----------    ---------  -----------       ------
   Longitudinal (u)         2.40         8.37        13.89        1.771       21.145
   Lateral (v)             -4.89        -0.00         5.45        1.537       18.352
   Vertical (w)            -3.33         0.00         3.85        0.994       11.863
   U component              2.40         8.37        13.89        1.771       21.145
   V component             -4.89        -0.00         5.45        1.537       18.352
   W component             -3.33         0.00         3.85        0.994       11.863
   Horizontal (U&V)         2.41         8.53        14.20        1.706       20.005
   Total                    2.84         8.59        14.21        1.683       19.586

                       Min Reynolds     Mean Reynolds    Max Reynolds    Correlation
   Product             Stress (m/s)^2   Stress (m/s)^2   Stress (m/s)^2  Coefficient
   ----------------    --------------   --------------   --------------  -----------
   u'w'                    -18.994            -0.124            10.807        -0.070
   u'v'                    -30.484            -0.179            21.578        -0.066
   v'w'                     -9.175            -0.290             7.595        -0.190


   Friction Velocity (Ustar)  =      0.352 m/s
   Maximum Instantaneous TKE  =     30.504 (m/s)^2
   Maximum Instantaneous CTKE =     15.249 (m/s)^2


Grid Point Variance Summary:

   Y-coord -124.00 -111.60  -99.20  -86.80  -74.40  -62.00  -49.60  -37.20  -24.80  -12.40    0.00   12.40   24.80   37.20   49.60   62.00   74.40   86.80   99.20  111.60  124.00

   Height   Standard deviation at grid points for the u component:
   264.00    1.812   1.751   1.704   1.861   1.742   1.799   1.875   1.752   1.733   1.621   1.965   1.726   1.766   1.872   1.727   1.726   1.708   1.917   2.049   2.022   1.935
   251.60    1.642   1.758   1.655   1.734   1.842   1.969   1.867   1.652   1.887   1.632   1.697   1.699   1.695   1.776   1.816   1.676   1.739   1.745   1.838   1.834   1.745
   239.20    1.821   1.738   1.809   1.831   1.686   1.775   1.792   1.732   1.974   1.650   1.722   1.831   1.938   1.855   1.649   1.955   1.717   1.792   1.802   1.659   1.700
   226.80    1.705   1.829   1.713   1.765   1.741   1.783   1.829   1.804   1.789   1.675   1.711   1.801   1.757   1.702   1.681   1.805   1.741   1.706   1.668   1.694   1.750
   214.40    1.825   1.778   1.817   1.724   2.014   1.749   1.806   1.821   1.778   1.712   1.768   1.833   1.735   1.795   1.809   1.870   1.976   1.862   1.948   1.919   1.847
   202.00    1.730   1.857   1.804   1.815   1.878   1.901   1.748   1.832   1.970   1.790   1.800   1.733   1.799   1.725   1.850   1.697   1.788   1.855   1.936   1.792   1.752
   189.60    1.832   1.819   1.675   1.773   1.734   1.812   1.714   1.753   1.870   1.780   1.812   1.755   1.649   1.734   1.770   1.768   1.738   1.710   1.823   1.781   1.704
   177.20    1.905   1.794   1.885   1.714   1.741   1.737   1.865   1.693   1.792   1.733   1.597   1.939   1.758   1.735   1.765   1.708   1.820   1.778   1.816   1.775   1.765
   164.80    1.843   1.736   1.703   1.697   1.760   1.780   1.732   1.835   1.831   1.880   1.869   1.749   1.726   1.755   1.898   1.872   1.858   1.799   1.764   1.640   1.898
   152.40    1.662   1.807   1.658   1.751   1.742   1.769   1.699   1.825   1.844   1.864   1.817   1.819   1.745   1.711   1.806   1.774   1.809   1.832   1.707   1.727   1.711
   140.00    1.787   1.851   1.754   1.833   1.703   1.750   1.793   1.699   1.771   1.810   1.771   1.665   1.886   1.772   1.851   1.774   1.827   1.804   1.829   1.662   1.846
   127.60    1.817   1.829   1.781   1.773   1.665   1.794   1.714   1.773   1.719   1.835   1.793   1.779   1.819   1.757   1.832   1.790   1.805   1.780   1.777   1.795   1.709
   115.20    1.771   1.795   1.799   1.758   1.796   1.691   1.728   1.794   1.783   1.693   1.703   1.804   1.774   1.821   1.720   1.749   1.716   1.726   1.846   1.876   1.783
   102.80    1.760   1.806   1.824   1.786   1.755   1.840   1.815   1.747   1.779   1.749   1.774   1.695   1.794   1.763   1.805   1.860   1.688   1.796   1.775   1.765   1.775
    90.40    1.800   1.778   1.821   1.785   1.806   1.760   1.777   1.852   1.742   1.763   1.883   1.868   1.786   1.724   1.787   1.801   1.809   1.726   1.748   1.732   1.786
    78.00    1.776   1.788   1.753   1.795   1.831   1.774   1.735   1.760   1.798   1.816   1.840   1.802   1.806   1.771   1.788   1.792   1.793   1.763   1.760   1.794   1.792
    65.60    1.777   1.770   1.773   1.755   1.745   1.780   1.827   1.758   1.762   1.747   1.779   1.747   1.793   1.790   1.776   1.787   1.807   1.805   1.750   1.798   1.774
    53.20    1.780   1.777   1.788   1.766   1.779   1.787   1.771   1.780   1.772   1.760   1.786   1.797   1.784   1.766   1.779   1.785   1.766   1.785   1.768   1.775   1.795
    40.80    1.775   1.779   1.788   1.785   1.788   1.787   1.787   1.784   1.773   1.775   1.782   1.788   1.780   1.797   1.774   1.791   1.780   1.777   1.774   1.791   1.781
    28.40    1.779   1.790   1.782   1.785   1.782   1.777   1.778   1.784   1.780   1.783   1.781   1.783   1.786   1.787   1.790   1.786   1.784   1.780   1.775   1.789   1.775
    16.00    1.782   1.783   1.783   1.782   1.783   1.783   1.781   1.784   1.783   1.782   1.784   1.783   1.784   1.784   1.783   1.784   1.783   1.783   1.782   1.782   1.782

   Height   Standard deviation at grid points for the v component:
   264.00    1.347   1.314   1.306   1.397   1.427   1.478   1.493   1.492   1.462   1.406   1.403   1.409   1.454   1.421   1.388   1.472   1.585   1.630   1.627   1.602   1.544
   251.60    1.474   1.405   1.429   1.425   1.453   1.492   1.445   1.402   1.358   1.332   1.349   1.365   1.394   1.443   1.414   1.487   1.569   1.529   1.590   1.561   1.583
   239.20    1.487   1.448   1.441   1.502   1.457   1.512   1.432   1.380   1.276   1.292   1.303   1.338   1.353   1.366   1.374   1.501   1.518   1.548   1.580   1.560   1.558
   226.80    1.585   1.513   1.501   1.471   1.473   1.469   1.473   1.437   1.397   1.340   1.325   1.301   1.307   1.315   1.359   1.407   1.467   1.476   1.553   1.533   1.588
   214.40    1.620   1.516   1.458   1.486   1.499   1.441   1.450   1.413   1.437   1.326   1.360   1.362   1.311   1.266   1.260   1.356   1.399   1.472   1.511   1.518   1.564
   202.00    1.615   1.589   1.507   1.529   1.524   1.591   1.485   1.510   1.455   1.423   1.319   1.402   1.361   1.340   1.317   1.305   1.372   1.423   1.506   1.564   1.603
   189.60    1.556   1.595   1.549   1.567   1.598   1.584   1.628   1.594   1.541   1.493   1.436   1.443   1.390   1.308   1.285   1.251   1.359   1.443   1.432   1.538   1.598
   177.20    1.640   1.598   1.571   1.622   1.602   1.664   1.681   1.648   1.570   1.485   1.468   1.408   1.342   1.302   1.240   1.218   1.340   1.341   1.383   1.494   1.527
   164.80    1.515   1.542   1.479   1.579   1.624   1.630   1.636   1.684   1.563   1.532   1.448   1.380   1.286   1.241   1.208   1.192   1.262   1.300   1.383   1.435   1.471
   152.40    1.464   1.503   1.490   1.530   1.635   1.610   1.606   1.660   1.615   1.522   1.433   1.403   1.367   1.308   1.201   1.187   1.225   1.264   1.261   1.302   1.379
   140.00    1.470   1.496   1.514   1.472   1.585   1.634   1.670   1.722   1.613   1.498   1.537   1.507   1.460   1.372   1.233   1.146   1.249   1.319   1.320   1.285   1.357
   127.60    1.497   1.485   1.515   1.468   1.509   1.595   1.682   1.699   1.620   1.567   1.602   1.577   1.464   1.344   1.257   1.205   1.287   1.381   1.342   1.291   1.330
   115.20    1.464   1.507   1.510   1.589   1.679   1.731   1.768   1.681   1.566   1.604   1.615   1.489   1.449   1.274   1.244   1.275   1.376   1.442   1.432   1.452   1.484
   102.80    1.419   1.498   1.510   1.622   1.685   1.770   1.707   1.625   1.483   1.527   1.561   1.548   1.443   1.360   1.327   1.296   1.378   1.497   1.528   1.590   1.578
    90.40    1.419   1.490   1.518   1.603   1.580   1.626   1.570   1.457   1.453   1.500   1.552   1.505   1.452   1.495   1.335   1.313   1.439   1.524   1.667   1.737   1.647
    78.00    1.377   1.412   1.437   1.508   1.536   1.483   1.460   1.434   1.413   1.400   1.468   1.401   1.467   1.487   1.354   1.282   1.408   1.531   1.692   1.762   1.657
    65.60    1.395   1.406   1.451   1.430   1.458   1.471   1.511   1.441   1.432   1.385   1.417   1.531   1.588   1.589   1.451   1.385   1.471   1.584   1.664   1.794   1.786
    53.20    1.347   1.367   1.477   1.527   1.512   1.443   1.464   1.534   1.424   1.408   1.428   1.556   1.641   1.693   1.587   1.531   1.590   1.635   1.645   1.714   1.747
    40.80    1.240   1.257   1.288   1.440   1.495   1.474   1.468   1.623   1.637   1.657   1.590   1.534   1.686   1.641   1.488   1.656   1.644   1.696   1.758   1.703   1.653
    28.40    1.399   1.294   1.279   1.306   1.389   1.456   1.457   1.514   1.648   1.647   1.631   1.611   1.575   1.659   1.572   1.712   1.614   1.634   1.644   1.680   1.664
    16.00    1.480   1.382   1.389   1.417   1.542   1.467   1.386   1.388   1.559   1.629   1.473   1.500   1.432   1.464   1.608   1.645   1.574   1.502   1.593   1.728   1.649

   Height   Standard deviation at grid points for the w component:
   264.00    0.926   0.947   0.981   0.951   0.957   0.997   0.969   0.958   0.963   0.930   0.910   0.878   0.887   0.922   0.898   0.897   0.910   0.879   0.912   0.926   0.937
   251.60    0.951   0.939   0.950   0.943   0.965   0.988   0.969   0.954   0.961   0.962   0.949   0.934   0.915   0.896   0.910   0.936   0.910   0.884   0.901   0.911   0.909
   239.20    0.954   0.937   0.950   0.943   0.943   0.951   0.963   0.928   0.920   0.922   0.973   0.963   0.937   0.919   0.944   0.958   0.928   0.915   0.916   0.916   0.915
   226.80    0.964   0.946   0.967   0.990   0.978   0.974   0.960   0.936   0.938   0.971   0.987   0.986   0.959   0.932   0.971   0.987   0.960   0.923   0.915   0.932   0.922
   214.40    0.942   0.939   0.938   0.946   0.974   0.951   0.937   0.936   0.950   0.994   1.011   1.016   1.003   0.959   0.960   0.958   0.942   0.917   0.923   0.919   0.940
   202.00    0.929   0.918   0.887   0.888   0.907   0.934   0.942   0.914   0.942   0.998   0.986   0.992   1.002   1.001   0.970   0.957   0.936   0.923   0.919   0.913   0.960
   189.60    0.927   0.928   0.885   0.883   0.908   0.976   0.938   0.963   0.988   0.996   1.004   1.005   1.004   1.011   1.012   0.993   0.986   0.961   0.959   0.955   0.966
   177.20    0.904   0.910   0.865   0.854   0.909   0.953   0.912   0.945   0.957   0.965   0.962   0.986   0.990   1.025   1.005   0.984   0.957   0.981   0.976   0.952   0.949
   164.80    0.917   0.905   0.900   0.871   0.896   0.901   0.895   0.894   0.969   0.973   1.002   1.001   0.979   1.007   1.024   1.010   0.970   0.971   0.968   0.939   0.948
   152.40    0.961   0.945   0.889   0.882   0.898   0.936   0.893   0.906   0.950   0.996   1.027   0.977   0.962   0.991   0.977   1.005   0.974   1.006   0.973   0.966   0.986
   140.00    0.984   0.950   0.928   0.916   0.892   0.922   0.900   0.955   0.985   1.013   0.994   0.955   0.964   0.963   0.971   0.971   0.990   0.990   0.943   0.964   1.005
   127.60    0.984   0.981   0.959   0.952   0.968   0.936   0.898   0.934   0.958   0.994   0.966   0.955   0.943   0.941   0.970   0.962   0.965   0.957   0.929   0.933   0.932
   115.20    1.026   1.012   0.964   0.968   0.922   0.925   0.962   0.972   0.903   0.930   0.944   0.951   0.972   0.975   1.004   0.941   0.937   0.957   0.935   0.936   0.911
   102.80    1.011   1.027   0.981   0.992   0.935   0.909   0.948   0.960   0.942   0.917   0.889   0.942   0.976   0.991   0.984   0.937   0.927   0.943   0.954   0.922   0.902
    90.40    0.964   0.954   0.955   0.946   0.928   0.932   0.928   0.950   0.990   0.931   0.935   0.931   0.989   0.996   1.014   0.976   0.945   0.940   0.933   0.924   0.926
    78.00    0.946   0.958   0.948   0.947   0.921   0.902   0.893   0.962   0.982   0.944   0.987   0.959   0.951   0.962   0.984   0.999   0.978   0.926   0.956   0.963   0.991
    65.60    0.922   0.925   0.938   0.922   0.931   0.918   0.891   0.924   0.956   0.935   0.964   0.956   0.960   0.954   0.958   0.963   0.953   0.927   0.968   0.950   0.973
    53.20    0.919   0.931   0.934   0.921   0.935   0.977   0.939   0.925   0.958   0.939   0.956   0.980   0.953   0.954   0.971   0.962   0.987   0.976   0.975   0.962   0.938
    40.80    0.910   0.893   0.920   0.913   0.935   0.929   0.897   0.920   0.950   0.954   0.962   0.937   0.898   0.916   0.945   0.939   0.954   0.992   0.992   0.912   0.889
    28.40    0.964   0.918   0.931   0.958   0.942   0.873   0.906   0.949   0.942   0.938   0.900   0.930   0.894   0.885   0.933   0.906   0.952   0.978   0.991   0.971   0.917
    16.00    0.931   0.940   0.963   0.933   0.929   0.941   0.903   0.913   0.888   0.952   0.961   0.956   0.955   0.903   0.932   0.912   0.927   0.969   0.965   0.936   0.926

   Mean standard deviation across all grid points:
      u component:    1.782 m/s
      v component:    1.482 m/s
      w component:    0.948 m/s


U-component (X) statistics from the interpolated hub point:

   Mean =   8.3748 m/s
   TI   =  21.1448 %


Processing complete.  44.375 CPU seconds used.
