
This summary file was generated by TurbSim (v2.00.07a-bjj, 14-Jun-2016) on 17-Jul-2019 at 13:39:24.


Runtime Options:

 714191176  Random seed #1
    RANLUX  Type of random number generator
         F  Output binary HH turbulence parameters?
         F  Output formatted turbulence parameters?
         F  Output AeroDyn HH files?
         T  Output AeroDyn FF files?
         F  Output BLADED FF files?
         F  Output tower data?
         F  Output formatted FF files?
         F  Output coherent turbulence time step file?
         T  Clockwise rotation when looking downwind?
 0 -  NONE  IEC turbulence models scaled to exact specified standard deviation


Turbine/Model Specifications:

        21  Vertical grid-point matrix dimension
        21  Horizontal grid-point matrix dimension
     0.050  Time step [seconds]
   630.000  Analysis time [seconds]
   630.000  Usable output time [seconds]
   140.000  Hub height [m]
   248.000  Grid height [m]
   248.000  Grid width [m]
     0.000  Vertical flow angle [degrees]
     0.000  Horizontal flow angle [degrees]


Meteorological Boundary Conditions:

    IECKAI  IEC Kaimal spectral model
         1  IEC standard: IEC 61400-1 Ed. 3: 2005
         A  IEC turbulence characteristic
       NTM  IEC Normal Turbulence Model
       N/A  IEC Extreme Turbulence Model (ETM) "c" parameter [m/s]
       PL   Wind profile type
   140.000  Reference height [m]
     8.375  Reference wind speed [m/s]
       N/A  Jet height [m]
     0.200  Power law exponent
     0.030  Surface roughness length [m]


Non-IEC Meteorological Boundary Conditions:

       N/A  Site latitude [degrees]
       N/A  Gradient Richardson number
       N/A  Friction or shear velocity [m/s]
       N/A  Mixing layer depth [m]
       N/A  Mean hub u'w' Reynolds stress
       N/A  Mean hub u'v' Reynolds stress
       N/A  Mean hub v'w' Reynolds stress


Spatial Coherence Models:

   GENERAL  u-component coherence model
   GENERAL  v-component coherence model
   GENERAL  w-component coherence model
(   13.750, 0.400E-01)  u-component coherence parameters
(    9.850, 0.150E-02)  v-component coherence parameters
(    9.500, 0.300E-02)  w-component coherence parameters
     0.500  Coherence exponent


You have requested that the following file(s) be generated:

   C:\wisdem\RotorSE\src\rotorse\temp\RotorSE_FAST_BAR_005a\RotorSE_FAST_BAR_005a_turb_U8.374815_Seed714191176.0.bts (AeroDyn/TurbSim full-field wind file)


Turbulence Simulation Scaling Parameter Summary:

   Turbulence model used                            =  IEC Kaimal
   Turbulence characteristic                        =  A
   IEC turbulence type                              =  Normal Turbulence Model
   IEC standard                                     =  IEC 61400-1 Ed. 3: 2005
   Mean wind speed at hub height                    =    8.375 m/s
   Expected value of turbulence intensity at 15 m/s =   16.000%
   Characteristic value of standard deviation       =    1.901 m/s
   Turbulence scale                                 =   42.000 m
   u-component integral scale                       =  340.200 m
   Coherency scale                                  =  340.200 m
   Characteristic value of hub turbulence intensity =   22.699%
   Gradient Richardson number                       =    0.000

   Wind profile type                                =  Power law
   Power law exponent                               =    0.200
   Mean shear across rotor disk                     =    0.016 (m/s)/m
   Assumed rotor diameter                           =  248.000 m
   Surface roughness length                         =    0.030 m

   Nyquist frequency of turbulent wind field        =   10.000 Hz

   Number of time steps in the FFT                  =    12600
   Number of time steps output                      =    12600
   Number of points simulated                       =      441


Mean Flow Angles:

   Vertical   =   0.0 degrees
   Horizontal =   0.0 degrees

Mean Wind Speed Profile:

   Height    Wind Speed   Horizontal Angle  Vertical Angle  U-comp (X)   V-comp (Y)   W-comp (Z)
     (m)        (m/s)         (degrees)       (degrees)       (m/s)        (m/s)        (m/s)   
   ------    ----------   ----------------  --------------  ----------   ----------   ----------
    264.0        9.51            0.00            0.00          9.51         0.00         0.00
    251.6        9.42            0.00            0.00          9.42         0.00         0.00
    239.2        9.32            0.00            0.00          9.32         0.00         0.00
    226.8        9.22            0.00            0.00          9.22         0.00         0.00
    214.4        9.12            0.00            0.00          9.12         0.00         0.00
    202.0        9.01            0.00            0.00          9.01         0.00         0.00
    189.6        8.90            0.00            0.00          8.90         0.00         0.00
    177.2        8.78            0.00            0.00          8.78         0.00         0.00
    164.8        8.65            0.00            0.00          8.65         0.00         0.00
    152.4        8.52            0.00            0.00          8.52         0.00         0.00
    140.0        8.37            0.00            0.00          8.37         0.00         0.00
    127.6        8.22            0.00            0.00          8.22         0.00         0.00
    115.2        8.05            0.00            0.00          8.05         0.00         0.00
    102.8        7.87            0.00            0.00          7.87         0.00         0.00
     90.4        7.67            0.00            0.00          7.67         0.00         0.00
     78.0        7.45            0.00            0.00          7.45         0.00         0.00
     65.6        7.20            0.00            0.00          7.20         0.00         0.00
     53.2        6.90            0.00            0.00          6.90         0.00         0.00
     40.8        6.54            0.00            0.00          6.54         0.00         0.00
     28.4        6.09            0.00            0.00          6.09         0.00         0.00
     16.0        5.43            0.00            0.00          5.43         0.00         0.00


Harvested Random Seeds after Generation of the Random Numbers:

     77445013 K 1
            0 K 2


Hub-Height Simulated Turbulence Statistical Summary:

   Type of Wind        Min (m/s)   Mean (m/s)    Max (m/s)  Sigma (m/s)       TI (%)
   ----------------    ---------   ----------    ---------  -----------       ------
   Longitudinal (u)         2.47         8.37        13.49        1.813       21.648
   Lateral (v)             -6.09        -0.00         5.25        1.498       17.891
   Vertical (w)            -3.76         0.00         3.01        0.913       10.904
   U component              2.47         8.37        13.49        1.813       21.648
   V component             -6.09        -0.00         5.25        1.498       17.891
   W component             -3.76         0.00         3.01        0.913       10.904
   Horizontal (U&V)         2.54         8.51        13.79        1.819       21.385
   Total                    2.54         8.56        13.89        1.805       21.095

                       Min Reynolds     Mean Reynolds    Max Reynolds    Correlation
   Product             Stress (m/s)^2   Stress (m/s)^2   Stress (m/s)^2  Coefficient
   ----------------    --------------   --------------   --------------  -----------
   u'w'                     -9.780            -0.047             9.386        -0.029
   u'v'                    -18.614             0.001            20.303         0.001
   v'w'                     -7.262             0.015            11.250         0.011


   Friction Velocity (Ustar)  =      0.218 m/s
   Maximum Instantaneous TKE  =     21.765 (m/s)^2
   Maximum Instantaneous CTKE =     11.441 (m/s)^2


Grid Point Variance Summary:

   Y-coord -124.00 -111.60  -99.20  -86.80  -74.40  -62.00  -49.60  -37.20  -24.80  -12.40    0.00   12.40   24.80   37.20   49.60   62.00   74.40   86.80   99.20  111.60  124.00

   Height   Standard deviation at grid points for the u component:
   264.00    1.839   1.728   1.810   1.764   1.668   1.800   1.717   1.726   1.708   1.946   1.826   1.780   1.742   1.633   1.911   1.629   1.745   1.920   1.829   1.743   1.816
   251.60    1.660   1.790   1.942   1.769   1.853   1.694   1.762   1.911   1.714   1.780   1.829   1.800   1.783   1.956   1.562   1.691   1.778   1.834   1.701   1.912   1.856
   239.20    1.730   1.787   1.784   1.917   1.994   1.838   1.815   1.853   1.890   1.759   1.802   1.872   1.689   1.853   1.786   1.808   1.723   1.828   1.633   1.837   1.720
   226.80    1.737   1.697   1.750   1.858   1.888   1.835   1.709   1.795   1.668   1.873   1.826   1.670   1.859   1.745   1.777   1.783   1.779   1.838   1.784   1.789   1.702
   214.40    1.796   1.755   1.634   1.864   1.848   1.802   1.833   1.664   1.719   1.682   1.860   1.760   1.832   1.729   1.685   1.710   1.689   1.919   1.907   1.729   1.730
   202.00    1.821   1.646   1.860   1.739   1.770   1.778   1.689   1.788   1.877   1.766   1.790   1.707   1.764   1.941   1.785   1.816   1.875   1.769   1.736   1.779   1.808
   189.60    1.785   1.878   1.715   1.787   1.753   1.865   1.795   1.715   1.755   1.703   1.694   1.823   1.787   1.866   1.754   1.770   1.698   1.863   1.775   1.751   1.873
   177.20    1.687   1.797   1.774   1.691   1.688   1.711   1.807   1.822   1.895   1.888   1.856   1.794   1.685   1.827   1.675   1.813   1.792   1.811   1.793   1.797   1.833
   164.80    1.752   1.813   1.635   1.719   1.809   1.810   1.743   1.824   1.857   1.851   1.750   1.848   1.789   1.862   1.622   1.810   1.646   1.703   1.793   1.833   1.682
   152.40    1.766   1.724   1.711   1.775   1.694   1.776   1.829   1.937   1.813   1.854   1.719   1.795   1.787   1.706   1.823   1.778   1.833   1.701   1.703   1.744   1.909
   140.00    1.825   1.752   1.795   1.731   1.805   1.780   1.787   1.766   1.795   1.797   1.813   1.853   1.811   1.754   1.714   1.769   1.812   1.771   1.751   1.828   1.783
   127.60    1.793   1.738   1.744   1.776   1.789   1.731   1.714   1.771   1.760   1.819   1.733   1.759   1.817   1.754   1.756   1.781   1.768   1.825   1.755   1.810   1.842
   115.20    1.763   1.856   1.860   1.752   1.832   1.794   1.760   1.802   1.795   1.782   1.793   1.750   1.734   1.796   1.771   1.790   1.750   1.810   1.806   1.804   1.847
   102.80    1.833   1.756   1.809   1.835   1.723   1.717   1.734   1.825   1.751   1.829   1.720   1.847   1.856   1.754   1.824   1.753   1.781   1.788   1.772   1.769   1.789
    90.40    1.723   1.761   1.766   1.756   1.763   1.813   1.748   1.806   1.828   1.755   1.781   1.794   1.746   1.773   1.825   1.712   1.818   1.784   1.715   1.726   1.730
    78.00    1.766   1.826   1.711   1.765   1.763   1.794   1.813   1.816   1.802   1.759   1.764   1.767   1.756   1.726   1.763   1.772   1.729   1.778   1.795   1.796   1.746
    65.60    1.789   1.779   1.815   1.759   1.754   1.814   1.790   1.818   1.797   1.791   1.806   1.760   1.810   1.799   1.816   1.780   1.760   1.766   1.749   1.713   1.776
    53.20    1.780   1.791   1.758   1.785   1.793   1.775   1.802   1.765   1.789   1.770   1.795   1.763   1.779   1.791   1.773   1.778   1.758   1.776   1.781   1.787   1.759
    40.80    1.782   1.783   1.780   1.785   1.790   1.788   1.771   1.789   1.765   1.785   1.780   1.784   1.780   1.775   1.778   1.789   1.789   1.766   1.798   1.775   1.779
    28.40    1.783   1.786   1.779   1.785   1.787   1.785   1.782   1.782   1.785   1.790   1.780   1.779   1.784   1.777   1.778   1.787   1.785   1.784   1.781   1.781   1.780
    16.00    1.782   1.783   1.783   1.782   1.783   1.783   1.782   1.782   1.783   1.782   1.781   1.782   1.784   1.784   1.782   1.783   1.782   1.782   1.783   1.783   1.784

   Height   Standard deviation at grid points for the v component:
   264.00    1.627   1.601   1.602   1.624   1.553   1.592   1.481   1.434   1.358   1.334   1.336   1.365   1.429   1.416   1.408   1.385   1.416   1.394   1.326   1.362   1.382
   251.60    1.582   1.564   1.587   1.580   1.584   1.581   1.512   1.421   1.387   1.371   1.367   1.389   1.432   1.452   1.409   1.417   1.378   1.372   1.335   1.371   1.405
   239.20    1.556   1.554   1.551   1.561   1.583   1.556   1.448   1.427   1.383   1.381   1.406   1.439   1.434   1.366   1.397   1.381   1.365   1.301   1.298   1.329   1.390
   226.80    1.490   1.506   1.485   1.474   1.490   1.482   1.456   1.380   1.331   1.367   1.432   1.477   1.424   1.414   1.427   1.424   1.408   1.351   1.286   1.323   1.419
   214.40    1.436   1.411   1.484   1.490   1.476   1.470   1.405   1.436   1.391   1.368   1.448   1.600   1.539   1.526   1.463   1.416   1.400   1.399   1.345   1.342   1.384
   202.00    1.347   1.433   1.468   1.493   1.552   1.457   1.391   1.425   1.356   1.419   1.468   1.570   1.581   1.565   1.505   1.411   1.337   1.369   1.350   1.368   1.400
   189.60    1.363   1.398   1.412   1.496   1.570   1.513   1.465   1.482   1.404   1.390   1.444   1.502   1.536   1.569   1.505   1.388   1.386   1.413   1.373   1.381   1.417
   177.20    1.409   1.364   1.359   1.475   1.519   1.496   1.524   1.529   1.451   1.433   1.484   1.478   1.462   1.478   1.432   1.417   1.443   1.475   1.475   1.454   1.467
   164.80    1.381   1.374   1.350   1.426   1.488   1.514   1.529   1.540   1.518   1.485   1.469   1.482   1.448   1.453   1.380   1.417   1.530   1.579   1.589   1.587   1.531
   152.40    1.339   1.398   1.463   1.481   1.545   1.533   1.492   1.492   1.477   1.533   1.516   1.477   1.450   1.447   1.394   1.381   1.482   1.654   1.621   1.607   1.520
   140.00    1.339   1.461   1.443   1.473   1.489   1.423   1.437   1.429   1.471   1.525   1.498   1.531   1.457   1.424   1.418   1.352   1.463   1.592   1.564   1.541   1.529
   127.60    1.349   1.446   1.367   1.439   1.369   1.384   1.386   1.380   1.471   1.462   1.503   1.508   1.484   1.453   1.396   1.360   1.430   1.579   1.555   1.547   1.503
   115.20    1.467   1.476   1.366   1.335   1.315   1.302   1.331   1.398   1.427   1.465   1.479   1.418   1.432   1.470   1.495   1.418   1.504   1.522   1.563   1.621   1.632
   102.80    1.488   1.583   1.477   1.360   1.358   1.272   1.293   1.363   1.411   1.393   1.410   1.419   1.504   1.465   1.387   1.452   1.496   1.549   1.477   1.566   1.583
    90.40    1.630   1.648   1.543   1.528   1.435   1.345   1.329   1.390   1.531   1.519   1.458   1.497   1.510   1.441   1.405   1.438   1.466   1.500   1.380   1.478   1.579
    78.00    1.710   1.652   1.623   1.552   1.471   1.365   1.266   1.370   1.436   1.463   1.432   1.492   1.550   1.446   1.412   1.435   1.417   1.475   1.430   1.526   1.611
    65.60    1.610   1.569   1.524   1.445   1.395   1.353   1.325   1.411   1.471   1.422   1.299   1.449   1.489   1.474   1.420   1.460   1.459   1.526   1.518   1.527   1.622
    53.20    1.563   1.461   1.481   1.472   1.427   1.299   1.312   1.468   1.564   1.422   1.451   1.429   1.469   1.482   1.407   1.471   1.452   1.556   1.550   1.572   1.636
    40.80    1.570   1.522   1.443   1.453   1.446   1.435   1.401   1.645   1.590   1.501   1.448   1.459   1.422   1.501   1.549   1.505   1.499   1.502   1.544   1.603   1.599
    28.40    1.480   1.531   1.452   1.494   1.471   1.490   1.454   1.596   1.609   1.558   1.502   1.364   1.439   1.413   1.431   1.483   1.559   1.491   1.499   1.539   1.471
    16.00    1.480   1.551   1.494   1.585   1.639   1.480   1.377   1.429   1.419   1.645   1.518   1.489   1.409   1.292   1.394   1.495   1.558   1.626   1.517   1.477   1.453

   Height   Standard deviation at grid points for the w component:
   264.00    0.958   0.949   0.897   0.881   0.878   0.938   0.974   0.983   0.962   0.931   0.914   0.922   0.918   0.889   0.892   0.886   0.890   0.891   0.896   0.871   0.908
   251.60    0.929   0.920   0.898   0.889   0.920   0.934   0.963   0.966   0.960   0.958   0.918   0.917   0.900   0.916   0.892   0.899   0.878   0.885   0.903   0.913   0.910
   239.20    0.902   0.880   0.916   0.921   0.958   0.964   0.942   0.942   0.934   0.948   0.917   0.894   0.909   0.907   0.902   0.935   0.937   0.923   0.917   0.887   0.902
   226.80    0.896   0.885   0.885   0.890   0.927   0.936   0.902   0.903   0.926   0.941   0.905   0.901   0.893   0.883   0.909   0.930   0.948   0.951   0.948   0.937   0.892
   214.40    0.883   0.874   0.879   0.873   0.905   0.919   0.894   0.916   0.915   0.920   0.935   0.960   0.932   0.914   0.898   0.922   0.906   0.917   0.932   0.935   0.916
   202.00    0.869   0.858   0.851   0.862   0.884   0.890   0.892   0.923   0.914   0.908   0.941   0.938   0.919   0.939   0.901   0.899   0.877   0.923   0.944   0.933   0.938
   189.60    0.877   0.845   0.820   0.888   0.890   0.889   0.906   0.907   0.885   0.917   0.955   0.894   0.909   0.920   0.882   0.888   0.884   0.890   0.966   0.978   0.957
   177.20    0.861   0.853   0.877   0.882   0.915   0.908   0.895   0.902   0.899   0.935   0.936   0.914   0.915   0.941   0.932   0.922   0.899   0.919   0.971   0.998   0.978
   164.80    0.937   0.910   0.886   0.893   0.925   0.926   0.895   0.891   0.888   0.924   0.905   0.900   0.922   0.943   0.943   0.952   0.895   0.913   0.933   0.984   0.948
   152.40    0.935   0.919   0.888   0.899   0.934   0.930   0.910   0.889   0.885   0.926   0.897   0.918   0.920   0.940   0.950   0.943   0.916   0.901   0.914   0.926   0.953
   140.00    0.903   0.931   0.917   0.919   0.944   0.936   0.912   0.903   0.923   0.926   0.913   0.920   0.933   0.929   0.968   0.929   0.913   0.886   0.894   0.919   0.952
   127.60    0.899   0.923   0.934   0.929   0.976   0.965   0.935   0.943   0.923   0.927   0.922   0.927   0.944   0.909   0.950   0.956   0.932   0.879   0.912   0.922   0.953
   115.20    0.926   0.909   0.925   0.932   0.949   0.947   0.942   0.935   0.949   0.931   0.950   0.938   0.946   0.896   0.931   0.917   0.879   0.864   0.933   0.929   0.947
   102.80    0.891   0.930   0.905   0.964   0.949   0.975   0.970   0.942   0.923   0.937   0.951   0.945   0.940   0.914   0.910   0.910   0.891   0.889   0.920   0.917   0.887
    90.40    0.900   0.912   0.940   0.931   0.912   0.958   1.007   0.994   0.967   0.931   0.930   0.973   0.935   0.956   0.896   0.889   0.868   0.900   0.903   0.918   0.947
    78.00    0.968   0.955   0.942   0.886   0.882   0.919   0.960   0.979   0.971   0.974   0.966   0.977   0.928   0.951   0.917   0.913   0.882   0.877   0.903   0.900   0.901
    65.60    0.964   0.974   0.983   0.928   0.891   0.862   0.914   0.985   0.986   0.953   0.967   0.970   0.911   0.939   0.947   0.903   0.903   0.887   0.905   0.874   0.882
    53.20    0.959   1.007   1.000   0.906   0.917   0.902   0.900   0.932   0.953   0.961   0.920   0.941   0.943   0.940   0.933   0.912   0.932   0.919   0.892   0.895   0.936
    40.80    0.955   0.972   0.985   0.974   0.945   0.886   0.908   0.918   0.930   0.921   0.934   0.889   0.959   0.967   0.957   0.936   0.957   0.979   0.953   0.976   0.955
    28.40    0.934   0.970   0.992   0.953   0.900   0.928   0.935   0.931   0.964   0.911   0.887   0.916   0.933   0.947   0.911   0.913   0.917   0.942   0.942   0.965   0.943
    16.00    0.931   0.993   0.931   0.930   0.952   0.941   0.922   0.917   0.933   0.885   0.895   0.950   0.963   0.970   0.942   0.912   0.926   0.917   0.898   0.910   0.934

   Mean standard deviation across all grid points:
      u component:    1.781 m/s
      v component:    1.462 m/s
      w component:    0.923 m/s


U-component (X) statistics from the interpolated hub point:

   Mean =   8.3748 m/s
   TI   =  21.6483 %


Processing complete.  44.25 CPU seconds used.
