
This summary file was generated by TurbSim (v2.00.07a-bjj, 14-Jun-2016) on 10-Jul-2019 at 14:44:31.


Runtime Options:

-960771537  Random seed #1
    RANLUX  Type of random number generator
         F  Output binary HH turbulence parameters?
         F  Output formatted turbulence parameters?
         F  Output AeroDyn HH files?
         T  Output AeroDyn FF files?
         F  Output BLADED FF files?
         F  Output tower data?
         F  Output formatted FF files?
         F  Output coherent turbulence time step file?
         T  Clockwise rotation when looking downwind?
 0 -  NONE  IEC turbulence models scaled to exact specified standard deviation


Turbine/Model Specifications:

        21  Vertical grid-point matrix dimension
        21  Horizontal grid-point matrix dimension
     0.050  Time step [seconds]
   630.000  Analysis time [seconds]
   630.000  Usable output time [seconds]
   140.000  Hub height [m]
   248.000  Grid height [m]
   248.000  Grid width [m]
     0.000  Vertical flow angle [degrees]
     0.000  Horizontal flow angle [degrees]


Meteorological Boundary Conditions:

    IECKAI  IEC Kaimal spectral model
         1  IEC standard: IEC 61400-1 Ed. 3: 2005
         A  IEC turbulence characteristic
       NTM  IEC Normal Turbulence Model
       N/A  IEC Extreme Turbulence Model (ETM) "c" parameter [m/s]
       PL   Wind profile type
   140.000  Reference height [m]
     8.375  Reference wind speed [m/s]
       N/A  Jet height [m]
     0.200  Power law exponent
     0.030  Surface roughness length [m]


Non-IEC Meteorological Boundary Conditions:

       N/A  Site latitude [degrees]
       N/A  Gradient Richardson number
       N/A  Friction or shear velocity [m/s]
       N/A  Mixing layer depth [m]
       N/A  Mean hub u'w' Reynolds stress
       N/A  Mean hub u'v' Reynolds stress
       N/A  Mean hub v'w' Reynolds stress


Spatial Coherence Models:

   GENERAL  u-component coherence model
   GENERAL  v-component coherence model
   GENERAL  w-component coherence model
(   13.750, 0.400E-01)  u-component coherence parameters
(    9.850, 0.150E-02)  v-component coherence parameters
(    9.500, 0.300E-02)  w-component coherence parameters
     0.500  Coherence exponent


You have requested that the following file(s) be generated:

   C:\wisdem\RotorSE\src\rotorse\temp\RotorSE_FAST_BAR_005a\RotorSE_FAST_BAR_005a_turb_U8.374815_Seed-960771537.0.bts (AeroDyn/TurbSim full-field wind file)


Turbulence Simulation Scaling Parameter Summary:

   Turbulence model used                            =  IEC Kaimal
   Turbulence characteristic                        =  A
   IEC turbulence type                              =  Normal Turbulence Model
   IEC standard                                     =  IEC 61400-1 Ed. 3: 2005
   Mean wind speed at hub height                    =    8.375 m/s
   Expected value of turbulence intensity at 15 m/s =   16.000%
   Characteristic value of standard deviation       =    1.901 m/s
   Turbulence scale                                 =   42.000 m
   u-component integral scale                       =  340.200 m
   Coherency scale                                  =  340.200 m
   Characteristic value of hub turbulence intensity =   22.699%
   Gradient Richardson number                       =    0.000

   Wind profile type                                =  Power law
   Power law exponent                               =    0.200
   Mean shear across rotor disk                     =    0.016 (m/s)/m
   Assumed rotor diameter                           =  248.000 m
   Surface roughness length                         =    0.030 m

   Nyquist frequency of turbulent wind field        =   10.000 Hz

   Number of time steps in the FFT                  =    12600
   Number of time steps output                      =    12600
   Number of points simulated                       =      441


Mean Flow Angles:

   Vertical   =   0.0 degrees
   Horizontal =   0.0 degrees

Mean Wind Speed Profile:

   Height    Wind Speed   Horizontal Angle  Vertical Angle  U-comp (X)   V-comp (Y)   W-comp (Z)
     (m)        (m/s)         (degrees)       (degrees)       (m/s)        (m/s)        (m/s)   
   ------    ----------   ----------------  --------------  ----------   ----------   ----------
    264.0        9.51            0.00            0.00          9.51         0.00         0.00
    251.6        9.42            0.00            0.00          9.42         0.00         0.00
    239.2        9.32            0.00            0.00          9.32         0.00         0.00
    226.8        9.22            0.00            0.00          9.22         0.00         0.00
    214.4        9.12            0.00            0.00          9.12         0.00         0.00
    202.0        9.01            0.00            0.00          9.01         0.00         0.00
    189.6        8.90            0.00            0.00          8.90         0.00         0.00
    177.2        8.78            0.00            0.00          8.78         0.00         0.00
    164.8        8.65            0.00            0.00          8.65         0.00         0.00
    152.4        8.52            0.00            0.00          8.52         0.00         0.00
    140.0        8.37            0.00            0.00          8.37         0.00         0.00
    127.6        8.22            0.00            0.00          8.22         0.00         0.00
    115.2        8.05            0.00            0.00          8.05         0.00         0.00
    102.8        7.87            0.00            0.00          7.87         0.00         0.00
     90.4        7.67            0.00            0.00          7.67         0.00         0.00
     78.0        7.45            0.00            0.00          7.45         0.00         0.00
     65.6        7.20            0.00            0.00          7.20         0.00         0.00
     53.2        6.90            0.00            0.00          6.90         0.00         0.00
     40.8        6.54            0.00            0.00          6.54         0.00         0.00
     28.4        6.09            0.00            0.00          6.09         0.00         0.00
     16.0        5.43            0.00            0.00          5.43         0.00         0.00


Harvested Random Seeds after Generation of the Random Numbers:

     77445013 K 1
            0 K 2
