
This summary file was generated by TurbSim (v2.00.07a-bjj, 14-Jun-2016) on 17-Jul-2019 at 13:37:55.


Runtime Options:

 333954657  Random seed #1
    RANLUX  Type of random number generator
         F  Output binary HH turbulence parameters?
         F  Output formatted turbulence parameters?
         F  Output AeroDyn HH files?
         T  Output AeroDyn FF files?
         F  Output BLADED FF files?
         F  Output tower data?
         F  Output formatted FF files?
         F  Output coherent turbulence time step file?
         T  Clockwise rotation when looking downwind?
 0 -  NONE  IEC turbulence models scaled to exact specified standard deviation


Turbine/Model Specifications:

        21  Vertical grid-point matrix dimension
        21  Horizontal grid-point matrix dimension
     0.050  Time step [seconds]
   630.000  Analysis time [seconds]
   630.000  Usable output time [seconds]
   140.000  Hub height [m]
   248.000  Grid height [m]
   248.000  Grid width [m]
     0.000  Vertical flow angle [degrees]
     0.000  Horizontal flow angle [degrees]


Meteorological Boundary Conditions:

    IECKAI  IEC Kaimal spectral model
         1  IEC standard: IEC 61400-1 Ed. 3: 2005
         A  IEC turbulence characteristic
       NTM  IEC Normal Turbulence Model
       N/A  IEC Extreme Turbulence Model (ETM) "c" parameter [m/s]
       PL   Wind profile type
   140.000  Reference height [m]
     8.375  Reference wind speed [m/s]
       N/A  Jet height [m]
     0.200  Power law exponent
     0.030  Surface roughness length [m]


Non-IEC Meteorological Boundary Conditions:

       N/A  Site latitude [degrees]
       N/A  Gradient Richardson number
       N/A  Friction or shear velocity [m/s]
       N/A  Mixing layer depth [m]
       N/A  Mean hub u'w' Reynolds stress
       N/A  Mean hub u'v' Reynolds stress
       N/A  Mean hub v'w' Reynolds stress


Spatial Coherence Models:

   GENERAL  u-component coherence model
   GENERAL  v-component coherence model
   GENERAL  w-component coherence model
(   13.750, 0.400E-01)  u-component coherence parameters
(    9.850, 0.150E-02)  v-component coherence parameters
(    9.500, 0.300E-02)  w-component coherence parameters
     0.500  Coherence exponent


You have requested that the following file(s) be generated:

   C:\wisdem\RotorSE\src\rotorse\temp\RotorSE_FAST_BAR_005a\RotorSE_FAST_BAR_005a_turb_U8.374815_Seed333954657.0.bts (AeroDyn/TurbSim full-field wind file)


Turbulence Simulation Scaling Parameter Summary:

   Turbulence model used                            =  IEC Kaimal
   Turbulence characteristic                        =  A
   IEC turbulence type                              =  Normal Turbulence Model
   IEC standard                                     =  IEC 61400-1 Ed. 3: 2005
   Mean wind speed at hub height                    =    8.375 m/s
   Expected value of turbulence intensity at 15 m/s =   16.000%
   Characteristic value of standard deviation       =    1.901 m/s
   Turbulence scale                                 =   42.000 m
   u-component integral scale                       =  340.200 m
   Coherency scale                                  =  340.200 m
   Characteristic value of hub turbulence intensity =   22.699%
   Gradient Richardson number                       =    0.000

   Wind profile type                                =  Power law
   Power law exponent                               =    0.200
   Mean shear across rotor disk                     =    0.016 (m/s)/m
   Assumed rotor diameter                           =  248.000 m
   Surface roughness length                         =    0.030 m

   Nyquist frequency of turbulent wind field        =   10.000 Hz

   Number of time steps in the FFT                  =    12600
   Number of time steps output                      =    12600
   Number of points simulated                       =      441


Mean Flow Angles:

   Vertical   =   0.0 degrees
   Horizontal =   0.0 degrees

Mean Wind Speed Profile:

   Height    Wind Speed   Horizontal Angle  Vertical Angle  U-comp (X)   V-comp (Y)   W-comp (Z)
     (m)        (m/s)         (degrees)       (degrees)       (m/s)        (m/s)        (m/s)   
   ------    ----------   ----------------  --------------  ----------   ----------   ----------
    264.0        9.51            0.00            0.00          9.51         0.00         0.00
    251.6        9.42            0.00            0.00          9.42         0.00         0.00
    239.2        9.32            0.00            0.00          9.32         0.00         0.00
    226.8        9.22            0.00            0.00          9.22         0.00         0.00
    214.4        9.12            0.00            0.00          9.12         0.00         0.00
    202.0        9.01            0.00            0.00          9.01         0.00         0.00
    189.6        8.90            0.00            0.00          8.90         0.00         0.00
    177.2        8.78            0.00            0.00          8.78         0.00         0.00
    164.8        8.65            0.00            0.00          8.65         0.00         0.00
    152.4        8.52            0.00            0.00          8.52         0.00         0.00
    140.0        8.37            0.00            0.00          8.37         0.00         0.00
    127.6        8.22            0.00            0.00          8.22         0.00         0.00
    115.2        8.05            0.00            0.00          8.05         0.00         0.00
    102.8        7.87            0.00            0.00          7.87         0.00         0.00
     90.4        7.67            0.00            0.00          7.67         0.00         0.00
     78.0        7.45            0.00            0.00          7.45         0.00         0.00
     65.6        7.20            0.00            0.00          7.20         0.00         0.00
     53.2        6.90            0.00            0.00          6.90         0.00         0.00
     40.8        6.54            0.00            0.00          6.54         0.00         0.00
     28.4        6.09            0.00            0.00          6.09         0.00         0.00
     16.0        5.43            0.00            0.00          5.43         0.00         0.00


Harvested Random Seeds after Generation of the Random Numbers:

     77445013 K 1
            0 K 2


Hub-Height Simulated Turbulence Statistical Summary:

   Type of Wind        Min (m/s)   Mean (m/s)    Max (m/s)  Sigma (m/s)       TI (%)
   ----------------    ---------   ----------    ---------  -----------       ------
   Longitudinal (u)         1.97         8.37        13.91        1.830       21.851
   Lateral (v)             -5.56        -0.00         4.64        1.342       16.023
   Vertical (w)            -3.20         0.00         3.52        0.895       10.692
   U component              1.97         8.37        13.91        1.830       21.851
   V component             -5.56        -0.00         4.64        1.342       16.023
   W component             -3.20         0.00         3.52        0.895       10.692
   Horizontal (U&V)         2.10         8.48        14.09        1.822       21.473
   Total                    2.28         8.53        14.10        1.807       21.179

                       Min Reynolds     Mean Reynolds    Max Reynolds    Correlation
   Product             Stress (m/s)^2   Stress (m/s)^2   Stress (m/s)^2  Coefficient
   ----------------    --------------   --------------   --------------  -----------
   u'w'                    -12.578            -0.067             9.866        -0.041
   u'v'                    -13.759             0.254            14.096         0.103
   v'w'                     -8.364             0.002             7.300         0.001


   Friction Velocity (Ustar)  =      0.258 m/s
   Maximum Instantaneous TKE  =     21.323 (m/s)^2
   Maximum Instantaneous CTKE =      8.100 (m/s)^2


Grid Point Variance Summary:

   Y-coord -124.00 -111.60  -99.20  -86.80  -74.40  -62.00  -49.60  -37.20  -24.80  -12.40    0.00   12.40   24.80   37.20   49.60   62.00   74.40   86.80   99.20  111.60  124.00

   Height   Standard deviation at grid points for the u component:
   264.00    1.754   1.596   1.837   1.838   1.918   1.776   1.532   1.661   1.573   1.841   1.666   1.715   1.760   1.881   1.807   1.848   1.741   1.648   1.689   1.755   1.833
   251.60    1.812   1.785   1.769   1.802   1.720   1.622   1.744   1.952   1.791   1.773   1.887   1.985   1.758   1.770   1.805   1.669   1.742   1.932   1.881   1.705   1.827
   239.20    1.778   1.602   1.678   1.813   1.773   1.624   1.761   1.813   1.691   1.744   1.735   1.815   1.882   1.772   1.814   1.723   1.697   1.852   1.832   1.675   1.774
   226.80    1.731   1.724   1.759   1.714   1.824   1.729   1.694   1.909   1.688   1.806   1.752   1.671   1.586   1.831   1.725   1.876   1.732   1.658   1.821   1.689   1.917
   214.40    1.762   1.775   1.773   1.759   1.801   1.852   1.642   1.714   1.775   1.831   1.657   1.771   1.785   1.704   1.665   1.791   1.598   1.810   1.740   1.851   1.791
   202.00    1.705   1.893   1.734   1.900   1.827   1.811   1.733   1.829   1.862   1.817   1.744   1.667   1.881   1.681   1.751   1.869   1.918   1.775   1.671   1.807   1.753
   189.60    1.768   1.906   1.769   1.728   1.634   1.871   1.807   1.664   1.728   1.598   1.659   1.827   1.651   1.780   1.728   1.854   1.706   1.773   1.808   1.707   1.770
   177.20    1.797   1.767   1.783   1.779   1.664   1.887   1.782   1.835   1.710   1.681   1.848   1.682   1.902   1.829   1.834   1.845   1.834   1.749   1.737   1.763   1.736
   164.80    1.711   1.781   1.838   1.853   1.811   1.743   1.959   1.828   1.935   1.832   1.803   1.827   1.772   1.787   1.734   1.911   1.884   1.703   1.802   1.792   1.756
   152.40    1.865   1.680   1.789   1.818   1.685   1.864   1.803   1.632   1.795   1.790   1.759   1.819   1.767   1.824   1.760   1.859   1.871   1.757   1.819   1.811   1.791
   140.00    1.729   1.781   1.870   1.796   1.845   1.705   1.722   1.830   1.819   1.822   1.830   1.741   1.725   1.811   1.768   1.907   1.755   1.889   1.669   1.750   1.782
   127.60    1.730   1.826   1.806   1.831   1.836   1.847   1.882   1.797   1.737   1.763   1.778   1.807   1.805   1.779   1.766   1.705   1.709   1.790   1.737   1.877   1.759
   115.20    1.805   1.711   1.782   1.837   1.760   1.780   1.661   1.816   1.854   1.811   1.765   1.770   1.757   1.832   1.800   1.839   1.709   1.816   1.756   1.769   1.778
   102.80    1.752   1.789   1.871   1.781   1.758   1.785   1.749   1.748   1.795   1.816   1.746   1.841   1.777   1.801   1.770   1.842   1.807   1.775   1.780   1.827   1.797
    90.40    1.773   1.714   1.821   1.759   1.723   1.828   1.779   1.744   1.739   1.794   1.823   1.756   1.800   1.822   1.773   1.750   1.790   1.705   1.720   1.727   1.768
    78.00    1.774   1.742   1.825   1.720   1.759   1.822   1.739   1.799   1.814   1.775   1.782   1.789   1.835   1.736   1.776   1.834   1.820   1.776   1.772   1.773   1.791
    65.60    1.772   1.782   1.771   1.771   1.767   1.750   1.790   1.803   1.804   1.790   1.798   1.783   1.768   1.787   1.814   1.802   1.816   1.756   1.822   1.739   1.780
    53.20    1.781   1.818   1.779   1.785   1.787   1.794   1.767   1.783   1.796   1.753   1.801   1.756   1.775   1.753   1.793   1.829   1.797   1.778   1.782   1.791   1.782
    40.80    1.775   1.791   1.767   1.778   1.793   1.778   1.774   1.779   1.767   1.790   1.783   1.785   1.768   1.787   1.774   1.784   1.794   1.768   1.768   1.802   1.784
    28.40    1.784   1.775   1.784   1.778   1.785   1.777   1.787   1.781   1.777   1.786   1.783   1.780   1.778   1.785   1.783   1.782   1.784   1.787   1.775   1.778   1.780
    16.00    1.782   1.781   1.782   1.782   1.782   1.783   1.782   1.783   1.782   1.782   1.784   1.783   1.782   1.784   1.781   1.784   1.782   1.783   1.782   1.782   1.782

   Height   Standard deviation at grid points for the v component:
   264.00    1.391   1.467   1.440   1.464   1.479   1.484   1.520   1.619   1.640   1.647   1.570   1.527   1.517   1.469   1.450   1.476   1.447   1.483   1.405   1.375   1.390
   251.60    1.442   1.537   1.568   1.501   1.543   1.572   1.667   1.664   1.646   1.670   1.624   1.534   1.544   1.444   1.405   1.407   1.389   1.397   1.398   1.344   1.432
   239.20    1.475   1.573   1.608   1.574   1.563   1.627   1.688   1.753   1.766   1.685   1.607   1.563   1.491   1.417   1.379   1.388   1.354   1.361   1.358   1.323   1.375
   226.80    1.379   1.471   1.604   1.570   1.503   1.562   1.712   1.750   1.748   1.644   1.586   1.515   1.453   1.380   1.353   1.353   1.335   1.313   1.275   1.315   1.354
   214.40    1.305   1.371   1.547   1.588   1.537   1.570   1.596   1.657   1.645   1.576   1.544   1.404   1.365   1.349   1.318   1.344   1.355   1.330   1.318   1.327   1.318
   202.00    1.346   1.380   1.479   1.481   1.510   1.528   1.533   1.533   1.530   1.487   1.414   1.329   1.338   1.344   1.359   1.353   1.357   1.375   1.376   1.355   1.296
   189.60    1.390   1.385   1.436   1.467   1.492   1.502   1.479   1.442   1.468   1.386   1.317   1.315   1.317   1.320   1.385   1.443   1.441   1.482   1.440   1.378   1.319
   177.20    1.384   1.391   1.414   1.467   1.470   1.428   1.416   1.415   1.339   1.253   1.255   1.379   1.419   1.404   1.423   1.441   1.388   1.450   1.449   1.397   1.301
   164.80    1.344   1.453   1.422   1.410   1.413   1.374   1.299   1.318   1.267   1.285   1.316   1.412   1.465   1.434   1.405   1.381   1.428   1.472   1.404   1.460   1.338
   152.40    1.376   1.418   1.370   1.383   1.379   1.305   1.266   1.204   1.210   1.304   1.359   1.407   1.419   1.379   1.375   1.372   1.440   1.498   1.389   1.389   1.448
   140.00    1.336   1.326   1.372   1.293   1.362   1.359   1.283   1.162   1.202   1.286   1.342   1.340   1.384   1.373   1.389   1.440   1.454   1.449   1.319   1.362   1.448
   127.60    1.336   1.378   1.334   1.294   1.336   1.405   1.355   1.253   1.320   1.299   1.311   1.348   1.381   1.440   1.421   1.503   1.487   1.419   1.412   1.412   1.489
   115.20    1.464   1.454   1.401   1.364   1.340   1.429   1.417   1.295   1.378   1.408   1.405   1.395   1.397   1.382   1.443   1.471   1.448   1.452   1.479   1.502   1.529
   102.80    1.454   1.500   1.451   1.441   1.421   1.396   1.414   1.375   1.428   1.426   1.366   1.362   1.385   1.377   1.518   1.499   1.459   1.423   1.527   1.565   1.519
    90.40    1.484   1.549   1.633   1.545   1.510   1.487   1.417   1.444   1.389   1.326   1.370   1.355   1.414   1.432   1.533   1.523   1.486   1.530   1.558   1.686   1.614
    78.00    1.479   1.572   1.569   1.565   1.514   1.477   1.426   1.397   1.342   1.355   1.396   1.399   1.397   1.526   1.502   1.537   1.524   1.517   1.597   1.599   1.519
    65.60    1.614   1.636   1.566   1.616   1.629   1.545   1.468   1.383   1.355   1.321   1.434   1.407   1.423   1.610   1.596   1.640   1.664   1.723   1.561   1.544   1.435
    53.20    1.576   1.579   1.543   1.502   1.569   1.572   1.572   1.522   1.378   1.410   1.520   1.519   1.583   1.689   1.741   1.788   1.688   1.762   1.619   1.593   1.479
    40.80    1.553   1.579   1.520   1.559   1.481   1.496   1.528   1.486   1.416   1.427   1.599   1.552   1.663   1.698   1.721   1.765   1.716   1.739   1.600   1.547   1.373
    28.40    1.447   1.505   1.474   1.594   1.630   1.553   1.470   1.513   1.448   1.548   1.585   1.454   1.667   1.642   1.617   1.623   1.648   1.679   1.591   1.493   1.338
    16.00    1.480   1.546   1.425   1.425   1.511   1.436   1.500   1.476   1.519   1.523   1.514   1.507   1.665   1.545   1.601   1.623   1.681   1.542   1.554   1.482   1.437

   Height   Standard deviation at grid points for the w component:
   264.00    0.893   0.892   0.895   0.908   0.918   0.961   0.987   0.954   0.976   1.008   0.984   0.997   1.001   0.997   0.973   0.962   0.948   0.957   0.958   0.970   0.955
   251.60    0.880   0.903   0.902   0.939   0.951   0.970   0.967   0.953   0.963   0.970   0.950   0.989   0.976   0.978   0.965   0.955   0.913   0.937   0.925   0.947   0.939
   239.20    0.906   0.931   0.936   0.962   0.987   0.987   0.956   0.961   0.944   0.920   0.959   0.974   0.983   0.951   0.936   0.922   0.903   0.896   0.937   0.935   0.939
   226.80    0.977   0.966   0.960   0.964   0.972   0.960   0.950   0.977   0.932   0.927   0.969   0.994   1.005   0.974   0.921   0.919   0.887   0.904   0.922   0.927   0.917
   214.40    0.941   0.952   0.951   0.971   0.960   0.970   0.987   1.008   0.969   0.945   0.988   0.973   0.974   0.955   0.909   0.905   0.880   0.936   0.911   0.924   0.930
   202.00    0.900   0.902   0.935   0.991   0.971   0.973   0.978   0.961   0.961   0.944   0.955   0.941   0.911   0.923   0.904   0.895   0.904   0.918   0.922   0.927   0.929
   189.60    0.884   0.893   0.909   0.936   0.954   0.939   0.945   0.918   0.944   0.936   0.913   0.893   0.908   0.891   0.869   0.887   0.898   0.896   0.917   0.935   0.933
   177.20    0.870   0.876   0.886   0.894   0.913   0.906   0.909   0.908   0.961   0.965   0.949   0.908   0.908   0.905   0.891   0.896   0.902   0.901   0.889   0.899   0.914
   164.80    0.913   0.845   0.847   0.905   0.918   0.930   0.903   0.921   0.920   0.921   0.944   0.931   0.911   0.925   0.898   0.891   0.872   0.919   0.908   0.918   0.895
   152.40    0.912   0.893   0.899   0.926   0.938   0.922   0.920   0.892   0.899   0.915   0.920   0.907   0.905   0.905   0.882   0.873   0.915   0.911   0.904   0.921   0.901
   140.00    0.920   0.951   0.916   0.900   0.893   0.911   0.962   0.916   0.890   0.915   0.895   0.900   0.888   0.879   0.889   0.885   0.881   0.857   0.879   0.892   0.919
   127.60    0.981   0.955   0.922   0.912   0.906   0.912   0.920   0.913   0.887   0.907   0.923   0.900   0.945   0.922   0.913   0.875   0.854   0.859   0.870   0.891   0.868
   115.20    0.975   0.975   0.946   0.943   0.910   0.883   0.900   0.945   0.939   0.937   0.942   0.949   0.955   0.914   0.937   0.877   0.865   0.879   0.911   0.891   0.892
   102.80    0.927   0.944   0.949   0.920   0.946   0.941   0.933   0.945   0.915   0.919   0.949   0.921   0.928   0.915   0.926   0.895   0.911   0.927   0.915   0.847   0.879
    90.40    0.939   0.954   0.912   0.925   0.956   0.952   0.917   0.939   0.927   0.901   0.900   0.926   0.905   0.874   0.908   0.901   0.939   0.961   0.935   0.880   0.899
    78.00    0.936   0.915   0.936   0.919   0.935   0.946   0.924   0.920   0.880   0.857   0.919   0.964   0.924   0.879   0.888   0.886   0.933   0.943   0.883   0.862   0.907
    65.60    0.924   0.943   0.966   0.916   0.931   0.920   0.896   0.922   0.913   0.892   0.935   0.944   0.923   0.937   0.897   0.915   0.939   0.930   0.915   0.886   0.897
    53.20    0.969   0.953   0.966   0.949   0.957   0.941   0.889   0.946   0.908   0.890   0.920   0.928   0.936   0.918   0.893   0.898   0.939   0.971   0.981   0.959   0.932
    40.80    0.945   0.910   0.923   0.919   0.934   0.943   0.946   0.942   0.918   0.953   0.908   0.934   0.947   0.896   0.883   0.871   0.923   0.972   1.023   0.969   0.945
    28.40    0.952   0.872   0.903   0.942   0.930   0.945   0.917   0.912   0.954   0.930   0.925   0.960   0.964   0.915   0.909   0.896   0.921   0.945   0.956   0.905   0.912
    16.00    0.931   0.925   0.928   0.888   0.938   0.940   0.927   0.906   0.908   0.969   0.939   0.971   0.938   0.949   0.946   0.902   0.916   0.930   0.934   0.920   0.914

   Mean standard deviation across all grid points:
      u component:    1.778 m/s
      v component:    1.464 m/s
      w component:    0.926 m/s


U-component (X) statistics from the interpolated hub point:

   Mean =   8.3748 m/s
   TI   =  21.8509 %


Processing complete.  44 CPU seconds used.
