
This summary file was generated by TurbSim (v2.00.07a-bjj, 14-Jun-2016) on 17-Jul-2019 at 13:38:40.


Runtime Options:

-960771537  Random seed #1
    RANLUX  Type of random number generator
         F  Output binary HH turbulence parameters?
         F  Output formatted turbulence parameters?
         F  Output AeroDyn HH files?
         T  Output AeroDyn FF files?
         F  Output BLADED FF files?
         F  Output tower data?
         F  Output formatted FF files?
         F  Output coherent turbulence time step file?
         T  Clockwise rotation when looking downwind?
 0 -  NONE  IEC turbulence models scaled to exact specified standard deviation


Turbine/Model Specifications:

        21  Vertical grid-point matrix dimension
        21  Horizontal grid-point matrix dimension
     0.050  Time step [seconds]
   630.000  Analysis time [seconds]
   630.000  Usable output time [seconds]
   140.000  Hub height [m]
   248.000  Grid height [m]
   248.000  Grid width [m]
     0.000  Vertical flow angle [degrees]
     0.000  Horizontal flow angle [degrees]


Meteorological Boundary Conditions:

    IECKAI  IEC Kaimal spectral model
         1  IEC standard: IEC 61400-1 Ed. 3: 2005
         A  IEC turbulence characteristic
       NTM  IEC Normal Turbulence Model
       N/A  IEC Extreme Turbulence Model (ETM) "c" parameter [m/s]
       PL   Wind profile type
   140.000  Reference height [m]
     8.375  Reference wind speed [m/s]
       N/A  Jet height [m]
     0.200  Power law exponent
     0.030  Surface roughness length [m]


Non-IEC Meteorological Boundary Conditions:

       N/A  Site latitude [degrees]
       N/A  Gradient Richardson number
       N/A  Friction or shear velocity [m/s]
       N/A  Mixing layer depth [m]
       N/A  Mean hub u'w' Reynolds stress
       N/A  Mean hub u'v' Reynolds stress
       N/A  Mean hub v'w' Reynolds stress


Spatial Coherence Models:

   GENERAL  u-component coherence model
   GENERAL  v-component coherence model
   GENERAL  w-component coherence model
(   13.750, 0.400E-01)  u-component coherence parameters
(    9.850, 0.150E-02)  v-component coherence parameters
(    9.500, 0.300E-02)  w-component coherence parameters
     0.500  Coherence exponent


You have requested that the following file(s) be generated:

   C:\wisdem\RotorSE\src\rotorse\temp\RotorSE_FAST_BAR_005a\RotorSE_FAST_BAR_005a_turb_U8.374815_Seed-960771537.0.bts (AeroDyn/TurbSim full-field wind file)


Turbulence Simulation Scaling Parameter Summary:

   Turbulence model used                            =  IEC Kaimal
   Turbulence characteristic                        =  A
   IEC turbulence type                              =  Normal Turbulence Model
   IEC standard                                     =  IEC 61400-1 Ed. 3: 2005
   Mean wind speed at hub height                    =    8.375 m/s
   Expected value of turbulence intensity at 15 m/s =   16.000%
   Characteristic value of standard deviation       =    1.901 m/s
   Turbulence scale                                 =   42.000 m
   u-component integral scale                       =  340.200 m
   Coherency scale                                  =  340.200 m
   Characteristic value of hub turbulence intensity =   22.699%
   Gradient Richardson number                       =    0.000

   Wind profile type                                =  Power law
   Power law exponent                               =    0.200
   Mean shear across rotor disk                     =    0.016 (m/s)/m
   Assumed rotor diameter                           =  248.000 m
   Surface roughness length                         =    0.030 m

   Nyquist frequency of turbulent wind field        =   10.000 Hz

   Number of time steps in the FFT                  =    12600
   Number of time steps output                      =    12600
   Number of points simulated                       =      441


Mean Flow Angles:

   Vertical   =   0.0 degrees
   Horizontal =   0.0 degrees

Mean Wind Speed Profile:

   Height    Wind Speed   Horizontal Angle  Vertical Angle  U-comp (X)   V-comp (Y)   W-comp (Z)
     (m)        (m/s)         (degrees)       (degrees)       (m/s)        (m/s)        (m/s)   
   ------    ----------   ----------------  --------------  ----------   ----------   ----------
    264.0        9.51            0.00            0.00          9.51         0.00         0.00
    251.6        9.42            0.00            0.00          9.42         0.00         0.00
    239.2        9.32            0.00            0.00          9.32         0.00         0.00
    226.8        9.22            0.00            0.00          9.22         0.00         0.00
    214.4        9.12            0.00            0.00          9.12         0.00         0.00
    202.0        9.01            0.00            0.00          9.01         0.00         0.00
    189.6        8.90            0.00            0.00          8.90         0.00         0.00
    177.2        8.78            0.00            0.00          8.78         0.00         0.00
    164.8        8.65            0.00            0.00          8.65         0.00         0.00
    152.4        8.52            0.00            0.00          8.52         0.00         0.00
    140.0        8.37            0.00            0.00          8.37         0.00         0.00
    127.6        8.22            0.00            0.00          8.22         0.00         0.00
    115.2        8.05            0.00            0.00          8.05         0.00         0.00
    102.8        7.87            0.00            0.00          7.87         0.00         0.00
     90.4        7.67            0.00            0.00          7.67         0.00         0.00
     78.0        7.45            0.00            0.00          7.45         0.00         0.00
     65.6        7.20            0.00            0.00          7.20         0.00         0.00
     53.2        6.90            0.00            0.00          6.90         0.00         0.00
     40.8        6.54            0.00            0.00          6.54         0.00         0.00
     28.4        6.09            0.00            0.00          6.09         0.00         0.00
     16.0        5.43            0.00            0.00          5.43         0.00         0.00


Harvested Random Seeds after Generation of the Random Numbers:

     77445013 K 1
            0 K 2


Hub-Height Simulated Turbulence Statistical Summary:

   Type of Wind        Min (m/s)   Mean (m/s)    Max (m/s)  Sigma (m/s)       TI (%)
   ----------------    ---------   ----------    ---------  -----------       ------
   Longitudinal (u)         2.85         8.37        14.07        1.852       22.116
   Lateral (v)             -4.50         0.00         5.39        1.340       15.995
   Vertical (w)            -3.94        -0.00         2.91        0.946       11.290
   U component              2.85         8.37        14.07        1.852       22.116
   V component             -4.50         0.00         5.39        1.340       15.995
   W component             -3.94        -0.00         2.91        0.946       11.290
   Horizontal (U&V)         2.98         8.49        14.19        1.827       21.523
   Total                    3.17         8.54        14.19        1.819       21.292

                       Min Reynolds     Mean Reynolds    Max Reynolds    Correlation
   Product             Stress (m/s)^2   Stress (m/s)^2   Stress (m/s)^2  Coefficient
   ----------------    --------------   --------------   --------------  -----------
   u'w'                    -11.737             0.123            11.541         0.070
   u'v'                    -13.407            -0.027            12.568        -0.011
   v'w'                     -7.192            -0.000            10.563        -0.000


   Friction Velocity (Ustar)  =      0.351 m/s
   Maximum Instantaneous TKE  =     17.913 (m/s)^2
   Maximum Instantaneous CTKE =      7.507 (m/s)^2


Grid Point Variance Summary:

   Y-coord -124.00 -111.60  -99.20  -86.80  -74.40  -62.00  -49.60  -37.20  -24.80  -12.40    0.00   12.40   24.80   37.20   49.60   62.00   74.40   86.80   99.20  111.60  124.00

   Height   Standard deviation at grid points for the u component:
   264.00    1.837   1.822   1.744   1.755   1.649   1.819   1.930   1.694   1.747   1.844   1.633   1.690   1.663   1.816   1.675   1.788   1.810   1.655   1.748   1.703   1.800
   251.60    1.762   1.890   1.787   1.831   1.873   1.810   1.532   1.670   1.934   1.773   1.854   1.688   1.759   1.767   1.893   1.816   1.718   1.730   1.813   1.799   1.757
   239.20    1.672   1.831   1.739   1.753   1.839   1.971   1.816   1.768   1.667   1.634   1.791   1.804   2.014   1.884   1.876   1.858   1.503   1.703   1.724   1.847   1.637
   226.80    1.792   1.757   1.767   1.774   1.793   1.733   1.717   1.816   1.680   1.740   1.780   1.791   1.716   1.712   1.775   1.777   1.813   1.825   1.934   1.819   1.776
   214.40    1.715   1.964   1.726   1.759   1.864   1.783   1.762   1.801   1.921   1.791   1.794   1.795   1.737   1.862   1.764   1.831   1.812   1.817   1.724   1.868   1.724
   202.00    1.723   1.715   1.690   1.804   1.780   1.836   1.784   1.729   1.924   1.646   1.731   1.665   1.733   1.743   1.855   1.846   1.769   1.688   1.907   1.761   1.784
   189.60    1.783   1.788   1.722   1.854   1.825   1.608   1.840   1.772   1.953   1.951   1.698   1.767   1.784   1.737   1.853   1.880   1.714   1.799   1.930   1.788   1.780
   177.20    1.794   1.708   1.821   1.826   1.836   1.807   1.870   1.654   1.760   1.782   1.781   1.640   1.757   1.744   1.844   1.944   1.813   1.679   1.803   1.811   1.818
   164.80    1.796   1.663   1.840   1.822   1.842   1.904   1.958   1.641   1.762   1.796   1.875   1.840   1.653   1.827   1.790   1.760   1.725   1.683   1.720   1.799   1.797
   152.40    1.694   1.791   1.792   1.692   1.786   1.768   1.763   1.723   1.829   1.668   1.720   1.750   1.779   1.886   1.733   1.656   1.839   1.833   1.739   1.780   1.739
   140.00    1.780   1.731   1.707   1.723   1.663   1.689   1.789   1.777   1.845   1.778   1.852   1.798   1.910   1.684   1.822   1.874   1.784   1.676   1.681   1.682   1.730
   127.60    1.831   1.837   1.876   1.763   1.711   1.711   1.827   1.756   1.789   1.757   1.805   1.720   1.734   1.855   1.786   1.797   1.740   1.745   1.797   1.795   1.773
   115.20    1.731   1.767   1.815   1.751   1.798   1.820   1.825   1.834   1.840   1.689   1.741   1.789   1.661   1.828   1.771   1.836   1.784   1.862   1.774   1.823   1.791
   102.80    1.770   1.759   1.841   1.765   1.811   1.814   1.746   1.800   1.780   1.777   1.678   1.800   1.798   1.755   1.857   1.729   1.800   1.745   1.778   1.839   1.739
    90.40    1.780   1.774   1.778   1.810   1.757   1.844   1.757   1.831   1.753   1.838   1.754   1.755   1.817   1.818   1.812   1.798   1.831   1.804   1.803   1.828   1.774
    78.00    1.803   1.735   1.766   1.739   1.756   1.804   1.779   1.751   1.829   1.761   1.780   1.742   1.753   1.787   1.762   1.752   1.771   1.790   1.833   1.840   1.788
    65.60    1.761   1.800   1.784   1.761   1.803   1.781   1.807   1.777   1.773   1.767   1.823   1.787   1.797   1.780   1.797   1.797   1.787   1.786   1.816   1.821   1.744
    53.20    1.770   1.793   1.793   1.760   1.776   1.788   1.794   1.813   1.764   1.778   1.770   1.784   1.765   1.772   1.790   1.765   1.782   1.796   1.791   1.798   1.775
    40.80    1.790   1.774   1.778   1.782   1.781   1.789   1.785   1.784   1.780   1.790   1.802   1.768   1.780   1.789   1.786   1.793   1.787   1.777   1.794   1.788   1.769
    28.40    1.782   1.784   1.783   1.790   1.785   1.778   1.778   1.789   1.785   1.789   1.784   1.784   1.777   1.784   1.785   1.785   1.783   1.785   1.783   1.786   1.780
    16.00    1.782   1.783   1.782   1.783   1.782   1.782   1.783   1.781   1.783   1.781   1.781   1.783   1.783   1.783   1.783   1.783   1.783   1.784   1.781   1.782   1.784

   Height   Standard deviation at grid points for the v component:
   264.00    1.405   1.421   1.432   1.449   1.460   1.391   1.354   1.322   1.302   1.280   1.268   1.356   1.384   1.425   1.450   1.474   1.448   1.488   1.482   1.402   1.381
   251.60    1.397   1.343   1.365   1.386   1.429   1.364   1.338   1.294   1.253   1.223   1.231   1.298   1.328   1.340   1.418   1.456   1.483   1.439   1.394   1.386   1.395
   239.20    1.378   1.327   1.343   1.356   1.356   1.394   1.319   1.320   1.231   1.260   1.243   1.255   1.287   1.317   1.400   1.449   1.435   1.399   1.290   1.324   1.338
   226.80    1.376   1.313   1.330   1.282   1.359   1.404   1.296   1.313   1.312   1.365   1.352   1.317   1.344   1.331   1.362   1.427   1.415   1.424   1.389   1.362   1.311
   214.40    1.383   1.360   1.337   1.304   1.394   1.401   1.379   1.327   1.348   1.393   1.420   1.374   1.342   1.332   1.362   1.446   1.468   1.503   1.470   1.390   1.276
   202.00    1.380   1.397   1.367   1.386   1.487   1.438   1.500   1.441   1.378   1.427   1.386   1.376   1.332   1.354   1.360   1.464   1.537   1.533   1.536   1.387   1.314
   189.60    1.347   1.333   1.355   1.459   1.516   1.476   1.558   1.518   1.439   1.366   1.359   1.376   1.380   1.345   1.370   1.432   1.479   1.556   1.541   1.497   1.464
   177.20    1.381   1.352   1.348   1.450   1.540   1.551   1.537   1.538   1.440   1.399   1.383   1.357   1.425   1.388   1.437   1.431   1.445   1.520   1.521   1.501   1.491
   164.80    1.380   1.351   1.388   1.511   1.547   1.540   1.459   1.460   1.447   1.384   1.365   1.402   1.461   1.404   1.465   1.509   1.553   1.507   1.494   1.502   1.497
   152.40    1.414   1.372   1.391   1.470   1.567   1.485   1.399   1.369   1.368   1.352   1.318   1.287   1.401   1.444   1.432   1.478   1.496   1.518   1.499   1.510   1.491
   140.00    1.420   1.407   1.453   1.433   1.485   1.470   1.428   1.357   1.393   1.349   1.340   1.337   1.370   1.453   1.470   1.480   1.492   1.483   1.488   1.582   1.540
   127.60    1.340   1.375   1.434   1.436   1.488   1.557   1.494   1.420   1.388   1.437   1.347   1.340   1.416   1.438   1.457   1.462   1.430   1.404   1.458   1.601   1.654
   115.20    1.378   1.376   1.320   1.358   1.396   1.509   1.468   1.435   1.385   1.392   1.382   1.394   1.462   1.432   1.379   1.411   1.421   1.392   1.481   1.610   1.594
   102.80    1.523   1.459   1.375   1.374   1.486   1.499   1.419   1.399   1.391   1.351   1.387   1.410   1.405   1.386   1.413   1.420   1.440   1.470   1.586   1.670   1.599
    90.40    1.583   1.509   1.407   1.391   1.478   1.456   1.417   1.457   1.367   1.375   1.436   1.479   1.411   1.404   1.423   1.438   1.467   1.510   1.485   1.576   1.609
    78.00    1.534   1.468   1.418   1.409   1.546   1.484   1.427   1.431   1.469   1.497   1.598   1.617   1.528   1.496   1.529   1.499   1.506   1.503   1.443   1.482   1.466
    65.60    1.376   1.300   1.356   1.389   1.389   1.463   1.495   1.564   1.544   1.583   1.743   1.794   1.719   1.583   1.585   1.564   1.487   1.495   1.503   1.491   1.508
    53.20    1.419   1.365   1.278   1.326   1.307   1.382   1.466   1.436   1.511   1.605   1.739   1.822   1.755   1.607   1.505   1.479   1.421   1.409   1.431   1.513   1.553
    40.80    1.436   1.402   1.202   1.340   1.320   1.353   1.417   1.473   1.420   1.514   1.580   1.647   1.628   1.471   1.522   1.475   1.380   1.412   1.441   1.464   1.503
    28.40    1.445   1.418   1.349   1.370   1.366   1.384   1.387   1.479   1.457   1.539   1.450   1.480   1.539   1.538   1.522   1.480   1.475   1.445   1.453   1.541   1.500
    16.00    1.480   1.314   1.351   1.393   1.439   1.588   1.427   1.395   1.498   1.572   1.400   1.410   1.505   1.556   1.573   1.415   1.414   1.465   1.461   1.389   1.329

   Height   Standard deviation at grid points for the w component:
   264.00    0.848   0.868   0.892   0.898   0.913   0.931   0.929   0.936   0.981   0.930   0.929   0.945   0.956   0.960   0.962   0.941   0.908   0.917   0.922   0.940   0.956
   251.60    0.869   0.889   0.909   0.914   0.938   0.922   0.927   0.939   0.958   0.937   0.936   0.940   0.924   0.908   0.928   0.907   0.910   0.907   0.897   0.926   0.914
   239.20    0.866   0.887   0.947   0.966   0.950   0.937   0.924   0.918   0.934   0.916   0.902   0.921   0.917   0.915   0.922   0.933   0.961   0.934   0.921   0.914   0.929
   226.80    0.913   0.881   0.919   0.966   0.956   0.920   0.927   0.929   0.896   0.875   0.886   0.906   0.918   0.891   0.916   0.942   0.987   0.955   0.933   0.919   0.943
   214.40    0.933   0.926   0.921   0.952   0.935   0.910   0.904   0.904   0.895   0.897   0.897   0.935   0.928   0.943   0.975   1.000   0.989   0.980   0.940   0.938   0.931
   202.00    0.944   0.941   0.942   0.974   0.964   0.900   0.896   0.912   0.878   0.872   0.926   0.973   0.997   1.006   1.034   1.050   1.013   0.972   0.941   0.939   0.926
   189.60    0.937   0.969   0.961   0.975   0.940   0.913   0.920   0.898   0.872   0.916   0.909   0.953   0.994   1.014   1.047   1.031   1.007   0.987   0.958   0.964   0.937
   177.20    0.969   1.007   0.958   0.974   0.942   0.921   0.936   0.921   0.925   0.912   0.917   0.939   0.947   0.975   0.962   0.986   0.963   0.970   0.967   0.985   0.958
   164.80    0.945   0.984   0.985   0.974   0.943   0.953   0.936   0.945   0.890   0.894   0.927   0.945   0.927   0.969   0.976   0.963   0.938   0.942   0.949   0.973   0.990
   152.40    0.978   0.962   0.973   0.971   0.930   0.920   0.913   0.928   0.923   0.910   0.945   0.945   0.902   0.950   0.964   0.972   0.921   0.908   0.912   0.901   0.936
   140.00    0.969   0.910   0.942   0.938   0.966   0.945   0.905   0.899   0.898   0.898   0.946   0.953   0.945   0.913   0.946   0.923   0.906   0.873   0.858   0.900   0.948
   127.60    0.934   0.910   0.914   0.922   0.926   0.899   0.876   0.850   0.880   0.917   0.925   0.942   0.934   0.885   0.891   0.925   0.901   0.889   0.890   0.908   0.936
   115.20    0.957   0.929   0.884   0.887   0.903   0.891   0.879   0.843   0.858   0.882   0.894   0.909   0.883   0.870   0.868   0.896   0.909   0.939   0.938   0.920   0.940
   102.80    0.986   0.933   0.877   0.860   0.875   0.895   0.864   0.838   0.854   0.904   0.910   0.900   0.926   0.877   0.899   0.916   0.942   0.972   0.988   0.979   0.992
    90.40    0.979   0.935   0.894   0.927   0.942   0.934   0.880   0.864   0.900   0.930   0.954   0.955   0.904   0.893   0.901   0.938   0.928   0.945   0.988   0.977   0.993
    78.00    0.931   0.897   0.875   0.941   0.972   0.947   0.897   0.895   0.895   0.934   0.941   0.908   0.934   0.892   0.943   0.936   0.890   0.942   0.961   0.963   0.937
    65.60    0.941   0.898   0.908   0.937   0.927   0.905   0.930   0.921   0.898   0.881   0.908   0.948   0.928   0.911   0.925   0.957   0.971   0.926   0.944   0.950   0.947
    53.20    0.930   0.886   0.945   0.965   0.926   0.877   0.894   0.922   0.898   0.896   0.922   0.925   0.914   0.882   0.921   0.963   0.936   0.927   0.934   0.975   0.932
    40.80    0.891   0.919   0.932   0.978   0.980   0.929   0.911   0.908   0.888   0.867   0.910   0.904   0.939   0.899   0.918   0.934   0.952   0.888   0.912   0.933   0.996
    28.40    0.891   0.922   0.907   0.936   0.932   0.959   0.931   0.928   0.907   0.912   0.947   0.938   0.920   0.905   0.920   0.935   0.924   0.925   0.939   0.918   0.973
    16.00    0.931   0.898   0.943   0.920   0.939   0.930   0.972   0.966   0.979   0.924   0.956   0.932   0.938   0.895   0.914   0.960   0.970   0.955   0.937   0.885   0.938

   Mean standard deviation across all grid points:
      u component:    1.781 m/s
      v component:    1.433 m/s
      w component:    0.929 m/s


U-component (X) statistics from the interpolated hub point:

   Mean =   8.3748 m/s
   TI   =  22.1161 %


Processing complete.  44.016 CPU seconds used.
