
This summary information was generated by AeroDyn on 08-Jul-2019 at 17:01:20.

======  General Options  ============================================================================
            1  WakeMod        - Type of wake/induction model: Blade-Element/Momentum Theory
            2  AFAeroMod      - Type of blade airfoil aerodynamics model: Beddoes-Leishman unsteady model
            0  TwrPotent      - Type tower influence on wind based on potential flow around the tower: none
            F  TwrShadow      - Calculate tower influence on wind based on downstream tower shadow? No
            F  TwrAero        - Calculate tower aerodynamic loads? No
======  Blade-Element/Momentum Theory Options  ======================================================
            1  SkewMod        - Type of skewed-wake correction model: uncoupled
            T  TipLoss        - Use the Prandtl tip-loss model? Yes
            T  HubLoss        - Use the Prandtl hub-loss model? Yes
            T  TanInd         - Include tangential induction in BEMT calculations? Yes
            T  AIDrag         - Include the drag term in the axial-induction calculation? Yes
            T  AIDrag         - Include the drag term in the tangential-induction calculation? Yes
   1.0000E-05  IndToler       - Convergence tolerance for BEM induction factors (radians)
======  Beddoes-Leishman Unsteady Airfoil Aerodynamics Options  =====================================
            3  UAMod          - Unsteady Aero Model: Minemma/Pierce variant (changes in Cc and Cm)
            T  FLookup        - Use a lookup for f'? Yes
======  Outputs  ====================================================================================
            9  NBlOuts        - Number of blade nodes selected for output
           50  NumBlNds       - Number of blade nodes in the analysis
               Blade nodes selected for output:  Output node  Analysis node
                                                 -----------  -------------
                                                           1              1
                                                           2              6
                                                           3             11
                                                           4             22
                                                           5             32
                                                           6             39
                                                           7             43
                                                           8             47
                                                           9             50
            0  NTwOuts        - Number of tower nodes selected for output
               Requested Output Channels:
               Col   Parameter  Units
               ----  ---------  -----
                  0  Time       (s)       
                  1  B1N1Fx     (N/m)     
                  2  B1N1Fy     (N/m)     
                  3  B1N2Fx     (N/m)     
                  4  B1N2Fy     (N/m)     
                  5  B1N3Fx     (N/m)     
                  6  B1N3Fy     (N/m)     
                  7  B1N4Fx     (N/m)     
                  8  B1N4Fy     (N/m)     
                  9  B1N5Fx     (N/m)     
                 10  B1N5Fy     (N/m)     
                 11  B1N6Fx     (N/m)     
                 12  B1N6Fy     (N/m)     
                 13  B1N7Fx     (N/m)     
                 14  B1N7Fy     (N/m)     
                 15  B1N8Fx     (N/m)     
                 16  B1N8Fy     (N/m)     
                 17  B1N9Fx     (N/m)     
                 18  B1N9Fy     (N/m)     
                 19  RtAeroCp   (-)       
                 20  RtAeroFxh  (N)       
                 21  RtAeroFyh  (N)       
                 22  RtAeroFzh  (N)       
                 23  RtAeroMxh  (N-m)     
                 24  RtAeroMyh  (N-m)     
                 25  RtAeroMzh  (N-m)     
